/*---------------------------------------------------------------------------*\
| =========                 |                                                 |
| \\      /  F ield         | OpenFOAM: The Open Source CFD Toolbox           |
|  \\    /   O peration     | Version:  2512                                  |
|   \\  /    A nd           | Website:  www.openfoam.com                      |
|    \\/     M anipulation  |                                                 |
\*---------------------------------------------------------------------------*/
Build  : _87ed40d256-20251219 OPENFOAM=2512 version=v2512
Arch   : "LSB;label=32;scalar=64"
Exec   : magnetoHDFoam
Date   : May 12 2026
Time   : 13:11:54
Host   : Raf
PID    : 512489
I/O    : uncollated
Case   : /home/Raf/OpenFOAM/run/mhdTURBtest1
nProcs : 1
trapFpe: Floating point exception trapping enabled (FOAM_SIGFPE).
memory pool : not available
fileModificationChecking : Monitoring run-time modified files using timeStampMaster (fileModificationSkew 5, maxFileModificationPolls 20)
allowSystemOperations : Allowing user-supplied system call operations

// * * * * * * * * * * * * * * * * * * * * * * * * * * * * * * * * * * * * * //
Create time

Create mesh for time = 0


PIMPLE: Operating solver in PISO mode


PISO: Operating solver in PISO mode


BPISO: Operating solver in PISO mode

Reading thermophysical properties

Selecting thermodynamics package 
{
    type            heRhoThermo;
    mixture         pureMixture;
    transport       const;
    thermo          hConst;
    equationOfState Boussinesq;
    specie          specie;
    energy          sensibleEnthalpy;
}

Reading field U

Reading/calculating face flux field phi

Creating turbulence model

Selecting turbulence model type RAS
Selecting RAS turbulence model kOmegaSST
Selecting patchDistMethod meshWave
RAS
{
    model           kOmegaSST;
    turbulence      on;
    printCoeffs     on;
    alphaK1         0.85;
    alphaK2         1;
    alphaOmega1     0.5;
    alphaOmega2     0.856;
    gamma1          0.555556;
    gamma2          0.44;
    beta1           0.075;
    beta2           0.0828;
    betaStar        0.09;
    a1              0.31;
    b1              1;
    c1              10;
    F3              false;
    decayControl    false;
    kInf            0;
    omegaInf        0;
}


Reading g

Reading hRef
Calculating field g.h

Reading field p_rgh

Creating field dpdt

Creating field kinetic energy K

No MRF models present

No finite volume options present
Reading field pB

Reading field B

Calculating face flux phiB

Reading transportProperties

Courant Number mean: 2.5e-07 max: 0.00025

Starting time loop

Courant Number mean: 2.5e-07 max: 0.00025
Time = 1e-05

PIMPLE: iteration 1
diagonal:  Solving for rho, Initial residual = 0, Final residual = 0, No Iterations 0
smoothSolver:  Solving for Ux, Initial residual = 1, Final residual = 4.38405e-10, No Iterations 4
smoothSolver:  Solving for Uy, Initial residual = 1, Final residual = 5.12923e-09, No Iterations 4
smoothSolver:  Solving for h, Initial residual = 3.48951e-05, Final residual = 2.67059e-05, No Iterations 1000
smoothSolver:  Solving for p_rgh, Initial residual = 0.999993, Final residual = 0.998775, No Iterations 1000
diagonal:  Solving for rho, Initial residual = 0, Final residual = 0, No Iterations 0
time step continuity errors : sum local = 5.00366e-07, global = 5e-07, cumulative = 5e-07
smoothSolver:  Solving for omega, Initial residual = 0.00714371, Final residual = 8.91734e-08, No Iterations 2
smoothSolver:  Solving for k, Initial residual = 1, Final residual = 5.6055e-08, No Iterations 3
smoothSolver:  Solving for Bx, Initial residual = 1, Final residual = 2.37151e-06, No Iterations 2
smoothSolver:  Solving for By, Initial residual = 1, Final residual = 3.54987e-06, No Iterations 2
DICPCG:  Solving for pB, Initial residual = 1, Final residual = 9.85404e-06, No Iterations 532
magnetic flux divergence error = 1.8454e-15
smoothSolver:  Solving for Bx, Initial residual = 5.28291e-06, Final residual = 5.28291e-06, No Iterations 0
smoothSolver:  Solving for By, Initial residual = 1.36335e-05, Final residual = 2.33386e-08, No Iterations 1
DICPCG:  Solving for pB, Initial residual = 3.63614e-05, Final residual = 9.32352e-06, No Iterations 24
magnetic flux divergence error = 3.49249e-15
smoothSolver:  Solving for Bx, Initial residual = 5.28325e-06, Final residual = 5.28325e-06, No Iterations 0
smoothSolver:  Solving for By, Initial residual = 2.37334e-08, Final residual = 2.37334e-08, No Iterations 0
DICPCG:  Solving for pB, Initial residual = 9.32339e-06, Final residual = 9.32339e-06, No Iterations 0
magnetic flux divergence error = 3.49249e-15
ExecutionTime = 5.7 s  ClockTime = 6 s

Courant Number mean: 1.79849e-05 max: 0.000501979
Time = 2e-05

PIMPLE: iteration 1
diagonal:  Solving for rho, Initial residual = 0, Final residual = 0, No Iterations 0
smoothSolver:  Solving for Ux, Initial residual = 0.253187, Final residual = 1.40546e-10, No Iterations 4
smoothSolver:  Solving for Uy, Initial residual = 0.385521, Final residual = 5.25523e-10, No Iterations 4
smoothSolver:  Solving for h, Initial residual = 0.994413, Final residual = 1.52081e-07, No Iterations 3
smoothSolver:  Solving for p_rgh, Initial residual = 0.99673, Final residual = 0.311126, No Iterations 1000
diagonal:  Solving for rho, Initial residual = 0, Final residual = 0, No Iterations 0
time step continuity errors : sum local = 5.00199e-07, global = 5e-07, cumulative = 1e-06
smoothSolver:  Solving for omega, Initial residual = 0.00448466, Final residual = 6.60925e-06, No Iterations 1
smoothSolver:  Solving for k, Initial residual = 0.167401, Final residual = 2.04674e-07, No Iterations 2
smoothSolver:  Solving for Bx, Initial residual = 0.490861, Final residual = 1.22335e-06, No Iterations 2
smoothSolver:  Solving for By, Initial residual = 0.24073, Final residual = 9.51612e-07, No Iterations 2
DICPCG:  Solving for pB, Initial residual = 0.332593, Final residual = 9.56728e-06, No Iterations 509
magnetic flux divergence error = 5.35973e-15
smoothSolver:  Solving for Bx, Initial residual = 1.73043e-06, Final residual = 1.73043e-06, No Iterations 0
smoothSolver:  Solving for By, Initial residual = 4.63381e-06, Final residual = 4.63381e-06, No Iterations 0
DICPCG:  Solving for pB, Initial residual = 7.18565e-06, Final residual = 7.18565e-06, No Iterations 0
magnetic flux divergence error = 5.35973e-15
smoothSolver:  Solving for Bx, Initial residual = 1.73043e-06, Final residual = 1.73043e-06, No Iterations 0
smoothSolver:  Solving for By, Initial residual = 4.63381e-06, Final residual = 4.63381e-06, No Iterations 0
DICPCG:  Solving for pB, Initial residual = 7.18565e-06, Final residual = 7.18565e-06, No Iterations 0
magnetic flux divergence error = 5.35973e-15
ExecutionTime = 8.62 s  ClockTime = 9 s

Courant Number mean: 3.39808e-05 max: 0.000519687
Time = 3e-05

PIMPLE: iteration 1
diagonal:  Solving for rho, Initial residual = 0, Final residual = 0, No Iterations 0
smoothSolver:  Solving for Ux, Initial residual = 0.127419, Final residual = 1.75053e-10, No Iterations 4
smoothSolver:  Solving for Uy, Initial residual = 0.461654, Final residual = 4.93165e-10, No Iterations 4
smoothSolver:  Solving for h, Initial residual = 0.50578, Final residual = 2.3859e-08, No Iterations 3
smoothSolver:  Solving for p_rgh, Initial residual = 0.707473, Final residual = 0.528962, No Iterations 1000
diagonal:  Solving for rho, Initial residual = 0, Final residual = 0, No Iterations 0
time step continuity errors : sum local = 5.00003e-07, global = 5e-07, cumulative = 1.5e-06
smoothSolver:  Solving for omega, Initial residual = 0.0040847, Final residual = 6.00896e-06, No Iterations 1
smoothSolver:  Solving for k, Initial residual = 0.0744924, Final residual = 1.13933e-07, No Iterations 2
smoothSolver:  Solving for Bx, Initial residual = 0.324988, Final residual = 8.28616e-07, No Iterations 2
smoothSolver:  Solving for By, Initial residual = 0.13745, Final residual = 5.76748e-07, No Iterations 2
DICPCG:  Solving for pB, Initial residual = 0.194606, Final residual = 9.37835e-06, No Iterations 492
magnetic flux divergence error = 8.67773e-15
smoothSolver:  Solving for Bx, Initial residual = 9.85111e-07, Final residual = 9.85111e-07, No Iterations 0
smoothSolver:  Solving for By, Initial residual = 2.33587e-06, Final residual = 2.33587e-06, No Iterations 0
DICPCG:  Solving for pB, Initial residual = 7.85481e-06, Final residual = 7.85481e-06, No Iterations 0
magnetic flux divergence error = 8.67773e-15
smoothSolver:  Solving for Bx, Initial residual = 9.85111e-07, Final residual = 9.85111e-07, No Iterations 0
smoothSolver:  Solving for By, Initial residual = 2.33587e-06, Final residual = 2.33587e-06, No Iterations 0
DICPCG:  Solving for pB, Initial residual = 7.85481e-06, Final residual = 7.85481e-06, No Iterations 0
magnetic flux divergence error = 8.67773e-15
ExecutionTime = 11.49 s  ClockTime = 12 s

Courant Number mean: 5.05814e-05 max: 0.000528298
Time = 4e-05

PIMPLE: iteration 1
diagonal:  Solving for rho, Initial residual = 0, Final residual = 0, No Iterations 0
smoothSolver:  Solving for Ux, Initial residual = 0.0961714, Final residual = 2.23776e-10, No Iterations 4
smoothSolver:  Solving for Uy, Initial residual = 0.204351, Final residual = 5.87297e-10, No Iterations 4
smoothSolver:  Solving for h, Initial residual = 0.324416, Final residual = 8.65973e-09, No Iterations 3
smoothSolver:  Solving for p_rgh, Initial residual = 0.670684, Final residual = 0.640635, No Iterations 1000
diagonal:  Solving for rho, Initial residual = 0, Final residual = 0, No Iterations 0
time step continuity errors : sum local = 5.00056e-07, global = 5.00001e-07, cumulative = 2e-06
smoothSolver:  Solving for omega, Initial residual = 0.00365038, Final residual = 5.38469e-06, No Iterations 1
smoothSolver:  Solving for k, Initial residual = 0.0431095, Final residual = 8.29173e-08, No Iterations 2
smoothSolver:  Solving for Bx, Initial residual = 0.242663, Final residual = 6.31167e-07, No Iterations 2
smoothSolver:  Solving for By, Initial residual = 0.0970715, Final residual = 4.2556e-07, No Iterations 2
DICPCG:  Solving for pB, Initial residual = 0.137656, Final residual = 9.17899e-06, No Iterations 475
magnetic flux divergence error = 1.17428e-14
smoothSolver:  Solving for Bx, Initial residual = 6.98853e-07, Final residual = 6.98853e-07, No Iterations 0
smoothSolver:  Solving for By, Initial residual = 1.38975e-06, Final residual = 1.38975e-06, No Iterations 0
DICPCG:  Solving for pB, Initial residual = 8.07657e-06, Final residual = 8.07657e-06, No Iterations 0
magnetic flux divergence error = 1.17428e-14
smoothSolver:  Solving for Bx, Initial residual = 6.98853e-07, Final residual = 6.98853e-07, No Iterations 0
smoothSolver:  Solving for By, Initial residual = 1.38975e-06, Final residual = 1.38975e-06, No Iterations 0
DICPCG:  Solving for pB, Initial residual = 8.07657e-06, Final residual = 8.07657e-06, No Iterations 0
magnetic flux divergence error = 1.17428e-14
ExecutionTime = 14.34 s  ClockTime = 14 s

Courant Number mean: 6.75265e-05 max: 0.000536942
Time = 5e-05

PIMPLE: iteration 1
diagonal:  Solving for rho, Initial residual = 0, Final residual = 0, No Iterations 0
smoothSolver:  Solving for Ux, Initial residual = 0.0779012, Final residual = 2.31578e-10, No Iterations 4
smoothSolver:  Solving for Uy, Initial residual = 0.148605, Final residual = 4.46712e-10, No Iterations 4
smoothSolver:  Solving for h, Initial residual = 0.239196, Final residual = 4.62494e-09, No Iterations 3
smoothSolver:  Solving for p_rgh, Initial residual = 0.694347, Final residual = 0.679946, No Iterations 1000
diagonal:  Solving for rho, Initial residual = 0, Final residual = 0, No Iterations 0
time step continuity errors : sum local = 5.00032e-07, global = 5.00002e-07, cumulative = 2.5e-06
smoothSolver:  Solving for omega, Initial residual = 0.00321439, Final residual = 4.77698e-06, No Iterations 1
smoothSolver:  Solving for k, Initial residual = 0.0290341, Final residual = 6.80834e-08, No Iterations 2
smoothSolver:  Solving for Bx, Initial residual = 0.193137, Final residual = 5.11645e-07, No Iterations 2
smoothSolver:  Solving for By, Initial residual = 0.0759159, Final residual = 3.44192e-07, No Iterations 2
DICPCG:  Solving for pB, Initial residual = 0.106547, Final residual = 9.60631e-06, No Iterations 469
magnetic flux divergence error = 1.56114e-14
smoothSolver:  Solving for Bx, Initial residual = 5.49179e-07, Final residual = 5.49179e-07, No Iterations 0
smoothSolver:  Solving for By, Initial residual = 9.20338e-07, Final residual = 9.20338e-07, No Iterations 0
DICPCG:  Solving for pB, Initial residual = 8.69052e-06, Final residual = 8.69052e-06, No Iterations 0
magnetic flux divergence error = 1.56114e-14
smoothSolver:  Solving for Bx, Initial residual = 5.49179e-07, Final residual = 5.49179e-07, No Iterations 0
smoothSolver:  Solving for By, Initial residual = 9.20338e-07, Final residual = 9.20338e-07, No Iterations 0
DICPCG:  Solving for pB, Initial residual = 8.69052e-06, Final residual = 8.69052e-06, No Iterations 0
magnetic flux divergence error = 1.56114e-14
ExecutionTime = 17.18 s  ClockTime = 17 s

Courant Number mean: 8.46066e-05 max: 0.000544596
Time = 6e-05

PIMPLE: iteration 1
diagonal:  Solving for rho, Initial residual = 0, Final residual = 0, No Iterations 0
smoothSolver:  Solving for Ux, Initial residual = 0.0667144, Final residual = 2.33395e-10, No Iterations 4
smoothSolver:  Solving for Uy, Initial residual = 0.130704, Final residual = 4.61702e-10, No Iterations 4
smoothSolver:  Solving for h, Initial residual = 0.19001, Final residual = 8.19423e-07, No Iterations 2
smoothSolver:  Solving for p_rgh, Initial residual = 0.719651, Final residual = 0.712684, No Iterations 1000
diagonal:  Solving for rho, Initial residual = 0, Final residual = 0, No Iterations 0
time step continuity errors : sum local = 5.00004e-07, global = 5.00003e-07, cumulative = 3.00001e-06
smoothSolver:  Solving for omega, Initial residual = 0.00280042, Final residual = 4.21245e-06, No Iterations 1
smoothSolver:  Solving for k, Initial residual = 0.0217291, Final residual = 5.93259e-08, No Iterations 2
smoothSolver:  Solving for Bx, Initial residual = 0.160078, Final residual = 4.31557e-07, No Iterations 2
smoothSolver:  Solving for By, Initial residual = 0.0631593, Final residual = 2.94164e-07, No Iterations 2
DICPCG:  Solving for pB, Initial residual = 0.0869842, Final residual = 9.85043e-06, No Iterations 470
magnetic flux divergence error = 1.93728e-14
smoothSolver:  Solving for Bx, Initial residual = 4.56344e-07, Final residual = 4.56344e-07, No Iterations 0
smoothSolver:  Solving for By, Initial residual = 6.60425e-07, Final residual = 6.60425e-07, No Iterations 0
DICPCG:  Solving for pB, Initial residual = 9.06511e-06, Final residual = 9.06511e-06, No Iterations 0
magnetic flux divergence error = 1.93728e-14
smoothSolver:  Solving for Bx, Initial residual = 4.56344e-07, Final residual = 4.56344e-07, No Iterations 0
smoothSolver:  Solving for By, Initial residual = 6.60425e-07, Final residual = 6.60425e-07, No Iterations 0
DICPCG:  Solving for pB, Initial residual = 9.06511e-06, Final residual = 9.06511e-06, No Iterations 0
magnetic flux divergence error = 1.93728e-14
ExecutionTime = 20.03 s  ClockTime = 20 s

Courant Number mean: 0.000101747 max: 0.000551505
Time = 7e-05

PIMPLE: iteration 1
diagonal:  Solving for rho, Initial residual = 0, Final residual = 0, No Iterations 0
smoothSolver:  Solving for Ux, Initial residual = 0.0591163, Final residual = 2.32692e-10, No Iterations 4
smoothSolver:  Solving for Uy, Initial residual = 0.113069, Final residual = 4.30305e-10, No Iterations 4
smoothSolver:  Solving for h, Initial residual = 0.157819, Final residual = 6.74956e-07, No Iterations 2
smoothSolver:  Solving for p_rgh, Initial residual = 0.741514, Final residual = 0.737023, No Iterations 1000
diagonal:  Solving for rho, Initial residual = 0, Final residual = 0, No Iterations 0
time step continuity errors : sum local = 5.00012e-07, global = 5.00005e-07, cumulative = 3.50001e-06
smoothSolver:  Solving for omega, Initial residual = 0.00242313, Final residual = 3.70541e-06, No Iterations 1
smoothSolver:  Solving for k, Initial residual = 0.017487, Final residual = 5.32474e-08, No Iterations 2
smoothSolver:  Solving for Bx, Initial residual = 0.136494, Final residual = 3.74305e-07, No Iterations 2
smoothSolver:  Solving for By, Initial residual = 0.0548859, Final residual = 2.61105e-07, No Iterations 2
DICPCG:  Solving for pB, Initial residual = 0.0735644, Final residual = 9.84954e-06, No Iterations 456
magnetic flux divergence error = 2.271e-14
smoothSolver:  Solving for Bx, Initial residual = 3.91393e-07, Final residual = 3.91393e-07, No Iterations 0
smoothSolver:  Solving for By, Initial residual = 5.05204e-07, Final residual = 5.05204e-07, No Iterations 0
DICPCG:  Solving for pB, Initial residual = 9.17811e-06, Final residual = 9.17811e-06, No Iterations 0
magnetic flux divergence error = 2.271e-14
smoothSolver:  Solving for Bx, Initial residual = 3.91393e-07, Final residual = 3.91393e-07, No Iterations 0
smoothSolver:  Solving for By, Initial residual = 5.05204e-07, Final residual = 5.05204e-07, No Iterations 0
DICPCG:  Solving for pB, Initial residual = 9.17811e-06, Final residual = 9.17811e-06, No Iterations 0
magnetic flux divergence error = 2.271e-14
ExecutionTime = 22.84 s  ClockTime = 23 s

Courant Number mean: 0.000118918 max: 0.000557729
Time = 8e-05

PIMPLE: iteration 1
diagonal:  Solving for rho, Initial residual = 0, Final residual = 0, No Iterations 0
smoothSolver:  Solving for Ux, Initial residual = 0.0537952, Final residual = 2.30059e-10, No Iterations 4
smoothSolver:  Solving for Uy, Initial residual = 0.0975324, Final residual = 3.87682e-10, No Iterations 4
smoothSolver:  Solving for h, Initial residual = 0.134984, Final residual = 5.73281e-07, No Iterations 2
smoothSolver:  Solving for p_rgh, Initial residual = 0.759957, Final residual = 0.75667, No Iterations 1000
diagonal:  Solving for rho, Initial residual = 0, Final residual = 0, No Iterations 0
time step continuity errors : sum local = 5.00011e-07, global = 5.00008e-07, cumulative = 4.00002e-06
smoothSolver:  Solving for omega, Initial residual = 0.00208957, Final residual = 3.2608e-06, No Iterations 1
smoothSolver:  Solving for k, Initial residual = 0.0147844, Final residual = 4.86099e-08, No Iterations 2
smoothSolver:  Solving for Bx, Initial residual = 0.118842, Final residual = 3.31352e-07, No Iterations 2
smoothSolver:  Solving for By, Initial residual = 0.0492121, Final residual = 2.38289e-07, No Iterations 2
DICPCG:  Solving for pB, Initial residual = 0.063846, Final residual = 9.55086e-06, No Iterations 411
magnetic flux divergence error = 2.52309e-14
smoothSolver:  Solving for Bx, Initial residual = 3.43299e-07, Final residual = 3.43299e-07, No Iterations 0
smoothSolver:  Solving for By, Initial residual = 4.08532e-07, Final residual = 4.08532e-07, No Iterations 0
DICPCG:  Solving for pB, Initial residual = 8.98165e-06, Final residual = 8.98165e-06, No Iterations 0
magnetic flux divergence error = 2.52309e-14
smoothSolver:  Solving for Bx, Initial residual = 3.43299e-07, Final residual = 3.43299e-07, No Iterations 0
smoothSolver:  Solving for By, Initial residual = 4.08532e-07, Final residual = 4.08532e-07, No Iterations 0
DICPCG:  Solving for pB, Initial residual = 8.98165e-06, Final residual = 8.98165e-06, No Iterations 0
magnetic flux divergence error = 2.52309e-14
ExecutionTime = 25.63 s  ClockTime = 26 s

Courant Number mean: 0.000136104 max: 0.000563344
Time = 9e-05

PIMPLE: iteration 1
diagonal:  Solving for rho, Initial residual = 0, Final residual = 0, No Iterations 0
smoothSolver:  Solving for Ux, Initial residual = 0.0499735, Final residual = 2.2404e-10, No Iterations 4
smoothSolver:  Solving for Uy, Initial residual = 0.0877083, Final residual = 3.59223e-10, No Iterations 4
smoothSolver:  Solving for h, Initial residual = 0.117875, Final residual = 4.97417e-07, No Iterations 2
smoothSolver:  Solving for p_rgh, Initial residual = 0.77501, Final residual = 0.772573, No Iterations 1000
diagonal:  Solving for rho, Initial residual = 0, Final residual = 0, No Iterations 0
time step continuity errors : sum local = 5.00011e-07, global = 5.00011e-07, cumulative = 4.50003e-06
smoothSolver:  Solving for omega, Initial residual = 0.00180121, Final residual = 2.87735e-06, No Iterations 1
smoothSolver:  Solving for k, Initial residual = 0.0129033, Final residual = 4.48332e-08, No Iterations 2
smoothSolver:  Solving for Bx, Initial residual = 0.105141, Final residual = 2.97934e-07, No Iterations 2
smoothSolver:  Solving for By, Initial residual = 0.0451963, Final residual = 2.2209e-07, No Iterations 2
DICPCG:  Solving for pB, Initial residual = 0.05648, Final residual = 9.70067e-06, No Iterations 449
magnetic flux divergence error = 2.88641e-14
smoothSolver:  Solving for Bx, Initial residual = 3.06378e-07, Final residual = 3.06378e-07, No Iterations 0
smoothSolver:  Solving for By, Initial residual = 3.47328e-07, Final residual = 3.47328e-07, No Iterations 0
DICPCG:  Solving for pB, Initial residual = 9.18712e-06, Final residual = 9.18712e-06, No Iterations 0
magnetic flux divergence error = 2.88641e-14
smoothSolver:  Solving for Bx, Initial residual = 3.06378e-07, Final residual = 3.06378e-07, No Iterations 0
smoothSolver:  Solving for By, Initial residual = 3.47328e-07, Final residual = 3.47328e-07, No Iterations 0
DICPCG:  Solving for pB, Initial residual = 9.18712e-06, Final residual = 9.18712e-06, No Iterations 0
magnetic flux divergence error = 2.88641e-14
ExecutionTime = 28.45 s  ClockTime = 29 s

Courant Number mean: 0.000153297 max: 0.000568414
Time = 0.0001

PIMPLE: iteration 1
diagonal:  Solving for rho, Initial residual = 0, Final residual = 0, No Iterations 0
smoothSolver:  Solving for Ux, Initial residual = 0.0472079, Final residual = 2.11376e-10, No Iterations 4
smoothSolver:  Solving for Uy, Initial residual = 0.0796554, Final residual = 3.26851e-10, No Iterations 4
smoothSolver:  Solving for h, Initial residual = 0.104546, Final residual = 4.38258e-07, No Iterations 2
smoothSolver:  Solving for p_rgh, Initial residual = 0.787137, Final residual = 0.785288, No Iterations 1000
diagonal:  Solving for rho, Initial residual = 0, Final residual = 0, No Iterations 0
time step continuity errors : sum local = 5.00015e-07, global = 5.00014e-07, cumulative = 5.00004e-06
smoothSolver:  Solving for omega, Initial residual = 0.00155591, Final residual = 2.55015e-06, No Iterations 1
smoothSolver:  Solving for k, Initial residual = 0.011496, Final residual = 4.16438e-08, No Iterations 2
smoothSolver:  Solving for Bx, Initial residual = 0.0942103, Final residual = 2.71199e-07, No Iterations 2
smoothSolver:  Solving for By, Initial residual = 0.0423021, Final residual = 2.10446e-07, No Iterations 2
DICPCG:  Solving for pB, Initial residual = 0.0506937, Final residual = 9.85825e-06, No Iterations 432
magnetic flux divergence error = 3.26028e-14
smoothSolver:  Solving for Bx, Initial residual = 2.7712e-07, Final residual = 2.7712e-07, No Iterations 0
smoothSolver:  Solving for By, Initial residual = 3.07243e-07, Final residual = 3.07243e-07, No Iterations 0
DICPCG:  Solving for pB, Initial residual = 9.38869e-06, Final residual = 9.38869e-06, No Iterations 0
magnetic flux divergence error = 3.26028e-14
smoothSolver:  Solving for Bx, Initial residual = 2.7712e-07, Final residual = 2.7712e-07, No Iterations 0
smoothSolver:  Solving for By, Initial residual = 3.07243e-07, Final residual = 3.07243e-07, No Iterations 0
DICPCG:  Solving for pB, Initial residual = 9.38869e-06, Final residual = 9.38869e-06, No Iterations 0
magnetic flux divergence error = 3.26028e-14
ExecutionTime = 31.22 s  ClockTime = 31 s

Courant Number mean: 0.000170492 max: 0.000572993
Time = 0.00011

PIMPLE: iteration 1
diagonal:  Solving for rho, Initial residual = 0, Final residual = 0, No Iterations 0
smoothSolver:  Solving for Ux, Initial residual = 0.0452303, Final residual = 2.01753e-10, No Iterations 4
smoothSolver:  Solving for Uy, Initial residual = 0.0717343, Final residual = 2.93376e-10, No Iterations 4
smoothSolver:  Solving for h, Initial residual = 0.0938562, Final residual = 3.90402e-07, No Iterations 2
smoothSolver:  Solving for p_rgh, Initial residual = 0.797534, Final residual = 0.796106, No Iterations 1000
diagonal:  Solving for rho, Initial residual = 0, Final residual = 0, No Iterations 0
time step continuity errors : sum local = 5.00018e-07, global = 5.00018e-07, cumulative = 5.50006e-06
smoothSolver:  Solving for omega, Initial residual = 0.00134951, Final residual = 2.27258e-06, No Iterations 1
smoothSolver:  Solving for k, Initial residual = 0.0104042, Final residual = 3.89025e-08, No Iterations 2
smoothSolver:  Solving for Bx, Initial residual = 0.0853083, Final residual = 2.49319e-07, No Iterations 2
smoothSolver:  Solving for By, Initial residual = 0.040216, Final residual = 2.0218e-07, No Iterations 2
DICPCG:  Solving for pB, Initial residual = 0.046318, Final residual = 9.89512e-06, No Iterations 397
magnetic flux divergence error = 3.59923e-14
smoothSolver:  Solving for Bx, Initial residual = 2.53357e-07, Final residual = 2.53357e-07, No Iterations 0
smoothSolver:  Solving for By, Initial residual = 2.80958e-07, Final residual = 2.80958e-07, No Iterations 0
DICPCG:  Solving for pB, Initial residual = 9.46633e-06, Final residual = 9.46633e-06, No Iterations 0
magnetic flux divergence error = 3.59923e-14
smoothSolver:  Solving for Bx, Initial residual = 2.53357e-07, Final residual = 2.53357e-07, No Iterations 0
smoothSolver:  Solving for By, Initial residual = 2.80958e-07, Final residual = 2.80958e-07, No Iterations 0
DICPCG:  Solving for pB, Initial residual = 9.46633e-06, Final residual = 9.46633e-06, No Iterations 0
magnetic flux divergence error = 3.59923e-14
ExecutionTime = 33.96 s  ClockTime = 34 s

Courant Number mean: 0.00018769 max: 0.000577132
Time = 0.00012

PIMPLE: iteration 1
diagonal:  Solving for rho, Initial residual = 0, Final residual = 0, No Iterations 0
smoothSolver:  Solving for Ux, Initial residual = 0.0438725, Final residual = 1.94994e-10, No Iterations 4
smoothSolver:  Solving for Uy, Initial residual = 0.0654918, Final residual = 2.66663e-10, No Iterations 4
smoothSolver:  Solving for h, Initial residual = 0.0850869, Final residual = 3.51575e-07, No Iterations 2
smoothSolver:  Solving for p_rgh, Initial residual = 0.806566, Final residual = 0.80545, No Iterations 1000
diagonal:  Solving for rho, Initial residual = 0, Final residual = 0, No Iterations 0
time step continuity errors : sum local = 5.00023e-07, global = 5.00023e-07, cumulative = 6.00009e-06
smoothSolver:  Solving for omega, Initial residual = 0.00117703, Final residual = 2.0376e-06, No Iterations 1
smoothSolver:  Solving for k, Initial residual = 0.00953269, Final residual = 3.65219e-08, No Iterations 2
smoothSolver:  Solving for Bx, Initial residual = 0.0779311, Final residual = 2.31074e-07, No Iterations 2
smoothSolver:  Solving for By, Initial residual = 0.0392481, Final residual = 1.96796e-07, No Iterations 2
DICPCG:  Solving for pB, Initial residual = 0.0428646, Final residual = 9.37958e-06, No Iterations 410
magnetic flux divergence error = 3.72039e-14
smoothSolver:  Solving for Bx, Initial residual = 2.3376e-07, Final residual = 2.3376e-07, No Iterations 0
smoothSolver:  Solving for By, Initial residual = 2.75196e-07, Final residual = 2.75196e-07, No Iterations 0
DICPCG:  Solving for pB, Initial residual = 9.00624e-06, Final residual = 9.00624e-06, No Iterations 0
magnetic flux divergence error = 3.72039e-14
smoothSolver:  Solving for Bx, Initial residual = 2.3376e-07, Final residual = 2.3376e-07, No Iterations 0
smoothSolver:  Solving for By, Initial residual = 2.75196e-07, Final residual = 2.75196e-07, No Iterations 0
DICPCG:  Solving for pB, Initial residual = 9.00624e-06, Final residual = 9.00624e-06, No Iterations 0
magnetic flux divergence error = 3.72039e-14
ExecutionTime = 36.77 s  ClockTime = 37 s

Courant Number mean: 0.00020489 max: 0.000580876
Time = 0.00013

PIMPLE: iteration 1
diagonal:  Solving for rho, Initial residual = 0, Final residual = 0, No Iterations 0
smoothSolver:  Solving for Ux, Initial residual = 0.04303, Final residual = 1.90592e-10, No Iterations 4
smoothSolver:  Solving for Uy, Initial residual = 0.0607328, Final residual = 2.46477e-10, No Iterations 4
smoothSolver:  Solving for h, Initial residual = 0.0777627, Final residual = 3.19464e-07, No Iterations 2
smoothSolver:  Solving for p_rgh, Initial residual = 0.814464, Final residual = 0.813581, No Iterations 1000
diagonal:  Solving for rho, Initial residual = 0, Final residual = 0, No Iterations 0
time step continuity errors : sum local = 5.00029e-07, global = 5.00029e-07, cumulative = 6.50011e-06
smoothSolver:  Solving for omega, Initial residual = 0.00103262, Final residual = 1.83714e-06, No Iterations 1
smoothSolver:  Solving for k, Initial residual = 0.00880071, Final residual = 3.44414e-08, No Iterations 2
smoothSolver:  Solving for Bx, Initial residual = 0.071717, Final residual = 2.15623e-07, No Iterations 2
smoothSolver:  Solving for By, Initial residual = 0.0390002, Final residual = 1.93755e-07, No Iterations 2
DICPCG:  Solving for pB, Initial residual = 0.0399667, Final residual = 9.99598e-06, No Iterations 435
magnetic flux divergence error = 4.29329e-14
smoothSolver:  Solving for Bx, Initial residual = 2.17388e-07, Final residual = 2.17388e-07, No Iterations 0
smoothSolver:  Solving for By, Initial residual = 2.77386e-07, Final residual = 2.77386e-07, No Iterations 0
DICPCG:  Solving for pB, Initial residual = 9.62811e-06, Final residual = 9.62811e-06, No Iterations 0
magnetic flux divergence error = 4.29329e-14
smoothSolver:  Solving for Bx, Initial residual = 2.17388e-07, Final residual = 2.17388e-07, No Iterations 0
smoothSolver:  Solving for By, Initial residual = 2.77386e-07, Final residual = 2.77386e-07, No Iterations 0
DICPCG:  Solving for pB, Initial residual = 9.62811e-06, Final residual = 9.62811e-06, No Iterations 0
magnetic flux divergence error = 4.29329e-14
ExecutionTime = 39.56 s  ClockTime = 40 s

Courant Number mean: 0.000222089 max: 0.000584264
Time = 0.00014

PIMPLE: iteration 1
diagonal:  Solving for rho, Initial residual = 0, Final residual = 0, No Iterations 0
smoothSolver:  Solving for Ux, Initial residual = 0.0426403, Final residual = 1.88236e-10, No Iterations 4
smoothSolver:  Solving for Uy, Initial residual = 0.0566913, Final residual = 2.29309e-10, No Iterations 4
smoothSolver:  Solving for h, Initial residual = 0.0715545, Final residual = 2.92507e-07, No Iterations 2
smoothSolver:  Solving for p_rgh, Initial residual = 0.821426, Final residual = 0.820718, No Iterations 1000
diagonal:  Solving for rho, Initial residual = 0, Final residual = 0, No Iterations 0
time step continuity errors : sum local = 5.00035e-07, global = 5.00035e-07, cumulative = 7.00015e-06
smoothSolver:  Solving for omega, Initial residual = 0.000911824, Final residual = 1.66562e-06, No Iterations 1
smoothSolver:  Solving for k, Initial residual = 0.00817329, Final residual = 3.26145e-08, No Iterations 2
smoothSolver:  Solving for Bx, Initial residual = 0.0664106, Final residual = 2.02365e-07, No Iterations 2
smoothSolver:  Solving for By, Initial residual = 0.0390639, Final residual = 1.92709e-07, No Iterations 2
DICPCG:  Solving for pB, Initial residual = 0.0374983, Final residual = 9.63669e-06, No Iterations 369
magnetic flux divergence error = 4.45541e-14
smoothSolver:  Solving for Bx, Initial residual = 2.03408e-07, Final residual = 2.03408e-07, No Iterations 0
smoothSolver:  Solving for By, Initial residual = 2.7965e-07, Final residual = 2.7965e-07, No Iterations 0
DICPCG:  Solving for pB, Initial residual = 9.30684e-06, Final residual = 9.30684e-06, No Iterations 0
magnetic flux divergence error = 4.45541e-14
smoothSolver:  Solving for Bx, Initial residual = 2.03408e-07, Final residual = 2.03408e-07, No Iterations 0
smoothSolver:  Solving for By, Initial residual = 2.7965e-07, Final residual = 2.7965e-07, No Iterations 0
DICPCG:  Solving for pB, Initial residual = 9.30684e-06, Final residual = 9.30684e-06, No Iterations 0
magnetic flux divergence error = 4.45541e-14
ExecutionTime = 42.3 s  ClockTime = 42 s

Courant Number mean: 0.000239288 max: 0.000587333
Time = 0.00015

PIMPLE: iteration 1
diagonal:  Solving for rho, Initial residual = 0, Final residual = 0, No Iterations 0
smoothSolver:  Solving for Ux, Initial residual = 0.0426711, Final residual = 1.87757e-10, No Iterations 4
smoothSolver:  Solving for Uy, Initial residual = 0.0532389, Final residual = 2.1466e-10, No Iterations 4
smoothSolver:  Solving for h, Initial residual = 0.066227, Final residual = 2.69598e-07, No Iterations 2
smoothSolver:  Solving for p_rgh, Initial residual = 0.827603, Final residual = 0.827031, No Iterations 1000
diagonal:  Solving for rho, Initial residual = 0, Final residual = 0, No Iterations 0
time step continuity errors : sum local = 5.00041e-07, global = 5.00041e-07, cumulative = 7.50019e-06
smoothSolver:  Solving for omega, Initial residual = 0.000811137, Final residual = 1.5191e-06, No Iterations 1
smoothSolver:  Solving for k, Initial residual = 0.0076214, Final residual = 3.09692e-08, No Iterations 2
smoothSolver:  Solving for Bx, Initial residual = 0.0618231, Final residual = 1.90845e-07, No Iterations 2
smoothSolver:  Solving for By, Initial residual = 0.039417, Final residual = 1.9338e-07, No Iterations 2
DICPCG:  Solving for pB, Initial residual = 0.0354339, Final residual = 9.75999e-06, No Iterations 308
magnetic flux divergence error = 4.83295e-14
smoothSolver:  Solving for Bx, Initial residual = 1.91302e-07, Final residual = 1.91302e-07, No Iterations 0
smoothSolver:  Solving for By, Initial residual = 2.82648e-07, Final residual = 2.82648e-07, No Iterations 0
DICPCG:  Solving for pB, Initial residual = 9.44546e-06, Final residual = 9.44546e-06, No Iterations 0
magnetic flux divergence error = 4.83295e-14
smoothSolver:  Solving for Bx, Initial residual = 1.91302e-07, Final residual = 1.91302e-07, No Iterations 0
smoothSolver:  Solving for By, Initial residual = 2.82648e-07, Final residual = 2.82648e-07, No Iterations 0
DICPCG:  Solving for pB, Initial residual = 9.44546e-06, Final residual = 9.44546e-06, No Iterations 0
magnetic flux divergence error = 4.83295e-14
ExecutionTime = 44.96 s  ClockTime = 45 s

Courant Number mean: 0.000256482 max: 0.000590116
Time = 0.00016

PIMPLE: iteration 1
diagonal:  Solving for rho, Initial residual = 0, Final residual = 0, No Iterations 0
smoothSolver:  Solving for Ux, Initial residual = 0.0431133, Final residual = 1.89096e-10, No Iterations 4
smoothSolver:  Solving for Uy, Initial residual = 0.0502567, Final residual = 2.02041e-10, No Iterations 4
smoothSolver:  Solving for h, Initial residual = 0.0616055, Final residual = 2.49908e-07, No Iterations 2
smoothSolver:  Solving for p_rgh, Initial residual = 0.833124, Final residual = 0.832657, No Iterations 1000
diagonal:  Solving for rho, Initial residual = 0, Final residual = 0, No Iterations 0
time step continuity errors : sum local = 5.00046e-07, global = 5.00046e-07, cumulative = 8.00024e-06
smoothSolver:  Solving for omega, Initial residual = 0.000727907, Final residual = 1.39441e-06, No Iterations 1
smoothSolver:  Solving for k, Initial residual = 0.00713961, Final residual = 2.94861e-08, No Iterations 2
smoothSolver:  Solving for Bx, Initial residual = 0.0578018, Final residual = 1.80687e-07, No Iterations 2
smoothSolver:  Solving for By, Initial residual = 0.0400562, Final residual = 1.95685e-07, No Iterations 2
DICPCG:  Solving for pB, Initial residual = 0.0337391, Final residual = 9.84392e-06, No Iterations 326
magnetic flux divergence error = 5.19964e-14
smoothSolver:  Solving for Bx, Initial residual = 1.80661e-07, Final residual = 1.80661e-07, No Iterations 0
smoothSolver:  Solving for By, Initial residual = 2.86939e-07, Final residual = 2.86939e-07, No Iterations 0
DICPCG:  Solving for pB, Initial residual = 9.54513e-06, Final residual = 9.54513e-06, No Iterations 0
magnetic flux divergence error = 5.19964e-14
smoothSolver:  Solving for Bx, Initial residual = 1.80661e-07, Final residual = 1.80661e-07, No Iterations 0
smoothSolver:  Solving for By, Initial residual = 2.86939e-07, Final residual = 2.86939e-07, No Iterations 0
DICPCG:  Solving for pB, Initial residual = 9.54513e-06, Final residual = 9.54513e-06, No Iterations 0
magnetic flux divergence error = 5.19964e-14
ExecutionTime = 47.61 s  ClockTime = 48 s

Courant Number mean: 0.000273667 max: 0.00059264
Time = 0.00017

PIMPLE: iteration 1
diagonal:  Solving for rho, Initial residual = 0, Final residual = 0, No Iterations 0
smoothSolver:  Solving for Ux, Initial residual = 0.0439702, Final residual = 1.92252e-10, No Iterations 4
smoothSolver:  Solving for Uy, Initial residual = 0.047652, Final residual = 1.91057e-10, No Iterations 4
smoothSolver:  Solving for h, Initial residual = 0.0575607, Final residual = 2.32827e-07, No Iterations 2
smoothSolver:  Solving for p_rgh, Initial residual = 0.838102, Final residual = 0.837716, No Iterations 1000
diagonal:  Solving for rho, Initial residual = 0, Final residual = 0, No Iterations 0
time step continuity errors : sum local = 5.00044e-07, global = 5.00044e-07, cumulative = 8.50028e-06
smoothSolver:  Solving for omega, Initial residual = 0.000656986, Final residual = 1.28539e-06, No Iterations 1
smoothSolver:  Solving for k, Initial residual = 0.00670269, Final residual = 2.81308e-08, No Iterations 2
smoothSolver:  Solving for Bx, Initial residual = 0.0542481, Final residual = 1.71651e-07, No Iterations 2
smoothSolver:  Solving for By, Initial residual = 0.0410018, Final residual = 1.99663e-07, No Iterations 2
DICPCG:  Solving for pB, Initial residual = 0.0322152, Final residual = 9.87281e-06, No Iterations 333
magnetic flux divergence error = 5.5422e-14
smoothSolver:  Solving for Bx, Initial residual = 1.71281e-07, Final residual = 1.71281e-07, No Iterations 0
smoothSolver:  Solving for By, Initial residual = 2.93004e-07, Final residual = 2.93004e-07, No Iterations 0
DICPCG:  Solving for pB, Initial residual = 9.58925e-06, Final residual = 9.58925e-06, No Iterations 0
magnetic flux divergence error = 5.5422e-14
smoothSolver:  Solving for Bx, Initial residual = 1.71281e-07, Final residual = 1.71281e-07, No Iterations 0
smoothSolver:  Solving for By, Initial residual = 2.93004e-07, Final residual = 2.93004e-07, No Iterations 0
DICPCG:  Solving for pB, Initial residual = 9.58925e-06, Final residual = 9.58925e-06, No Iterations 0
magnetic flux divergence error = 5.5422e-14
ExecutionTime = 50.27 s  ClockTime = 50 s

Courant Number mean: 0.000290826 max: 0.000594932
Time = 0.00018

PIMPLE: iteration 1
diagonal:  Solving for rho, Initial residual = 0, Final residual = 0, No Iterations 0
smoothSolver:  Solving for Ux, Initial residual = 0.0452349, Final residual = 1.97179e-10, No Iterations 4
smoothSolver:  Solving for Uy, Initial residual = 0.0453521, Final residual = 1.81403e-10, No Iterations 4
smoothSolver:  Solving for h, Initial residual = 0.0539921, Final residual = 2.17883e-07, No Iterations 2
smoothSolver:  Solving for p_rgh, Initial residual = 0.842616, Final residual = 0.842295, No Iterations 1000
diagonal:  Solving for rho, Initial residual = 0, Final residual = 0, No Iterations 0
time step continuity errors : sum local = 5.00027e-07, global = 5.00027e-07, cumulative = 9.00031e-06
smoothSolver:  Solving for omega, Initial residual = 0.000596972, Final residual = 1.19039e-06, No Iterations 1
smoothSolver:  Solving for k, Initial residual = 0.00631745, Final residual = 2.69114e-08, No Iterations 2
smoothSolver:  Solving for Bx, Initial residual = 0.0510904, Final residual = 1.63573e-07, No Iterations 2
smoothSolver:  Solving for By, Initial residual = 0.0422889, Final residual = 2.05444e-07, No Iterations 2
DICPCG:  Solving for pB, Initial residual = 0.0308741, Final residual = 9.82829e-06, No Iterations 321
magnetic flux divergence error = 5.84417e-14
smoothSolver:  Solving for Bx, Initial residual = 1.6294e-07, Final residual = 1.6294e-07, No Iterations 0
smoothSolver:  Solving for By, Initial residual = 3.01459e-07, Final residual = 3.01459e-07, No Iterations 0
DICPCG:  Solving for pB, Initial residual = 9.56015e-06, Final residual = 9.56015e-06, No Iterations 0
magnetic flux divergence error = 5.84417e-14
smoothSolver:  Solving for Bx, Initial residual = 1.6294e-07, Final residual = 1.6294e-07, No Iterations 0
smoothSolver:  Solving for By, Initial residual = 3.01459e-07, Final residual = 3.01459e-07, No Iterations 0
DICPCG:  Solving for pB, Initial residual = 9.56015e-06, Final residual = 9.56015e-06, No Iterations 0
magnetic flux divergence error = 5.84417e-14
ExecutionTime = 52.94 s  ClockTime = 53 s

Courant Number mean: 0.000307924 max: 0.000597016
Time = 0.00019

PIMPLE: iteration 1
diagonal:  Solving for rho, Initial residual = 0, Final residual = 0, No Iterations 0
smoothSolver:  Solving for Ux, Initial residual = 0.0468971, Final residual = 2.03818e-10, No Iterations 4
smoothSolver:  Solving for Uy, Initial residual = 0.0433007, Final residual = 1.72793e-10, No Iterations 4
smoothSolver:  Solving for h, Initial residual = 0.0508219, Final residual = 2.04676e-07, No Iterations 2
smoothSolver:  Solving for p_rgh, Initial residual = 0.846734, Final residual = 0.846464, No Iterations 1000
diagonal:  Solving for rho, Initial residual = 0, Final residual = 0, No Iterations 0
time step continuity errors : sum local = 4.99972e-07, global = 4.99972e-07, cumulative = 9.50028e-06
smoothSolver:  Solving for omega, Initial residual = 0.000545819, Final residual = 1.10697e-06, No Iterations 1
smoothSolver:  Solving for k, Initial residual = 0.00597614, Final residual = 2.58088e-08, No Iterations 2
smoothSolver:  Solving for Bx, Initial residual = 0.0482545, Final residual = 1.56273e-07, No Iterations 2
smoothSolver:  Solving for By, Initial residual = 0.0439837, Final residual = 2.1332e-07, No Iterations 2
DICPCG:  Solving for pB, Initial residual = 0.0296635, Final residual = 9.77756e-06, No Iterations 357
magnetic flux divergence error = 6.14049e-14
smoothSolver:  Solving for Bx, Initial residual = 1.5544e-07, Final residual = 1.5544e-07, No Iterations 0
smoothSolver:  Solving for By, Initial residual = 3.1304e-07, Final residual = 3.1304e-07, No Iterations 0
DICPCG:  Solving for pB, Initial residual = 9.52423e-06, Final residual = 9.52423e-06, No Iterations 0
magnetic flux divergence error = 6.14049e-14
smoothSolver:  Solving for Bx, Initial residual = 1.5544e-07, Final residual = 1.5544e-07, No Iterations 0
smoothSolver:  Solving for By, Initial residual = 3.1304e-07, Final residual = 3.1304e-07, No Iterations 0
DICPCG:  Solving for pB, Initial residual = 9.52423e-06, Final residual = 9.52423e-06, No Iterations 0
magnetic flux divergence error = 6.14049e-14
ExecutionTime = 55.66 s  ClockTime = 56 s

Courant Number mean: 0.000324891 max: 0.000598911
Time = 0.0002

PIMPLE: iteration 1
diagonal:  Solving for rho, Initial residual = 0, Final residual = 0, No Iterations 0
smoothSolver:  Solving for Ux, Initial residual = 0.0489029, Final residual = 2.11922e-10, No Iterations 4
smoothSolver:  Solving for Uy, Initial residual = 0.0414519, Final residual = 1.64949e-10, No Iterations 4
smoothSolver:  Solving for h, Initial residual = 0.0479884, Final residual = 1.92822e-07, No Iterations 2
smoothSolver:  Solving for p_rgh, Initial residual = 0.85051, Final residual = 0.850275, No Iterations 1000
diagonal:  Solving for rho, Initial residual = 0, Final residual = 0, No Iterations 0
time step continuity errors : sum local = 4.99843e-07, global = 4.99843e-07, cumulative = 1.00001e-05
smoothSolver:  Solving for omega, Initial residual = 0.000501884, Final residual = 1.03321e-06, No Iterations 1
smoothSolver:  Solving for k, Initial residual = 0.00567238, Final residual = 2.48075e-08, No Iterations 2
smoothSolver:  Solving for Bx, Initial residual = 0.0456743, Final residual = 1.49592e-07, No Iterations 2
smoothSolver:  Solving for By, Initial residual = 0.046181, Final residual = 2.23724e-07, No Iterations 2
DICPCG:  Solving for pB, Initial residual = 0.0285557, Final residual = 9.69529e-06, No Iterations 352
magnetic flux divergence error = 6.41315e-14
smoothSolver:  Solving for Bx, Initial residual = 1.48616e-07, Final residual = 1.48616e-07, No Iterations 0
smoothSolver:  Solving for By, Initial residual = 3.28749e-07, Final residual = 3.28749e-07, No Iterations 0
DICPCG:  Solving for pB, Initial residual = 9.45555e-06, Final residual = 9.45555e-06, No Iterations 0
magnetic flux divergence error = 6.41315e-14
smoothSolver:  Solving for Bx, Initial residual = 1.48616e-07, Final residual = 1.48616e-07, No Iterations 0
smoothSolver:  Solving for By, Initial residual = 3.28749e-07, Final residual = 3.28749e-07, No Iterations 0
DICPCG:  Solving for pB, Initial residual = 9.45555e-06, Final residual = 9.45555e-06, No Iterations 0
magnetic flux divergence error = 6.41315e-14
ExecutionTime = 58.34 s  ClockTime = 58 s

Courant Number mean: 0.000341599 max: 0.000600637
Time = 0.00021

PIMPLE: iteration 1
diagonal:  Solving for rho, Initial residual = 0, Final residual = 0, No Iterations 0
smoothSolver:  Solving for Ux, Initial residual = 0.0511107, Final residual = 2.20864e-10, No Iterations 4
smoothSolver:  Solving for Uy, Initial residual = 0.0397662, Final residual = 1.57696e-10, No Iterations 4
smoothSolver:  Solving for h, Initial residual = 0.0454419, Final residual = 1.81949e-07, No Iterations 2
smoothSolver:  Solving for p_rgh, Initial residual = 0.853995, Final residual = 0.853776, No Iterations 1000
diagonal:  Solving for rho, Initial residual = 0, Final residual = 0, No Iterations 0
time step continuity errors : sum local = 4.99588e-07, global = 4.99588e-07, cumulative = 1.04997e-05
smoothSolver:  Solving for omega, Initial residual = 0.000463848, Final residual = 9.67521e-07, No Iterations 1
smoothSolver:  Solving for k, Initial residual = 0.00540066, Final residual = 2.3896e-08, No Iterations 2
smoothSolver:  Solving for Bx, Initial residual = 0.0432895, Final residual = 1.4338e-07, No Iterations 2
smoothSolver:  Solving for By, Initial residual = 0.0490054, Final residual = 2.37244e-07, No Iterations 2
DICPCG:  Solving for pB, Initial residual = 0.0275368, Final residual = 9.8822e-06, No Iterations 265
magnetic flux divergence error = 6.86824e-14
smoothSolver:  Solving for Bx, Initial residual = 1.42322e-07, Final residual = 1.42322e-07, No Iterations 0
smoothSolver:  Solving for By, Initial residual = 3.50123e-07, Final residual = 3.50123e-07, No Iterations 0
DICPCG:  Solving for pB, Initial residual = 9.6468e-06, Final residual = 9.6468e-06, No Iterations 0
magnetic flux divergence error = 6.86824e-14
smoothSolver:  Solving for Bx, Initial residual = 1.42322e-07, Final residual = 1.42322e-07, No Iterations 0
smoothSolver:  Solving for By, Initial residual = 3.50123e-07, Final residual = 3.50123e-07, No Iterations 0
DICPCG:  Solving for pB, Initial residual = 9.6468e-06, Final residual = 9.6468e-06, No Iterations 0
magnetic flux divergence error = 6.86824e-14
ExecutionTime = 60.9 s  ClockTime = 61 s

Courant Number mean: 0.000357853 max: 0.000602209
Time = 0.00022

PIMPLE: iteration 1
diagonal:  Solving for rho, Initial residual = 0, Final residual = 0, No Iterations 0
smoothSolver:  Solving for Ux, Initial residual = 0.0532402, Final residual = 2.29426e-10, No Iterations 4
smoothSolver:  Solving for Uy, Initial residual = 0.0382066, Final residual = 1.50956e-10, No Iterations 4
smoothSolver:  Solving for h, Initial residual = 0.0431416, Final residual = 1.72167e-07, No Iterations 2
smoothSolver:  Solving for p_rgh, Initial residual = 0.857235, Final residual = 0.857044, No Iterations 1000
diagonal:  Solving for rho, Initial residual = 0, Final residual = 0, No Iterations 0
time step continuity errors : sum local = 4.99142e-07, global = 4.99142e-07, cumulative = 1.09989e-05
smoothSolver:  Solving for omega, Initial residual = 0.000430661, Final residual = 9.08664e-07, No Iterations 1
smoothSolver:  Solving for k, Initial residual = 0.00515606, Final residual = 2.30708e-08, No Iterations 2
smoothSolver:  Solving for Bx, Initial residual = 0.0410452, Final residual = 1.37506e-07, No Iterations 2
smoothSolver:  Solving for By, Initial residual = 0.0526413, Final residual = 2.54762e-07, No Iterations 2
DICPCG:  Solving for pB, Initial residual = 0.0265841, Final residual = 9.8386e-06, No Iterations 360
magnetic flux divergence error = 7.16993e-14
smoothSolver:  Solving for Bx, Initial residual = 1.36445e-07, Final residual = 1.36445e-07, No Iterations 0
smoothSolver:  Solving for By, Initial residual = 3.79211e-07, Final residual = 3.79211e-07, No Iterations 0
DICPCG:  Solving for pB, Initial residual = 9.61974e-06, Final residual = 9.61974e-06, No Iterations 0
magnetic flux divergence error = 7.16993e-14
smoothSolver:  Solving for Bx, Initial residual = 1.36445e-07, Final residual = 1.36445e-07, No Iterations 0
smoothSolver:  Solving for By, Initial residual = 3.79211e-07, Final residual = 3.79211e-07, No Iterations 0
DICPCG:  Solving for pB, Initial residual = 9.61974e-06, Final residual = 9.61974e-06, No Iterations 0
magnetic flux divergence error = 7.16993e-14
ExecutionTime = 63.6 s  ClockTime = 64 s

Courant Number mean: 0.000373379 max: 0.0006048
Time = 0.00023

PIMPLE: iteration 1
diagonal:  Solving for rho, Initial residual = 0, Final residual = 0, No Iterations 0
smoothSolver:  Solving for Ux, Initial residual = 0.0548855, Final residual = 2.35861e-10, No Iterations 4
smoothSolver:  Solving for Uy, Initial residual = 0.0367389, Final residual = 1.4462e-10, No Iterations 4
smoothSolver:  Solving for h, Initial residual = 0.0410524, Final residual = 1.6338e-07, No Iterations 2
smoothSolver:  Solving for p_rgh, Initial residual = 0.860556, Final residual = 0.860394, No Iterations 1000
diagonal:  Solving for rho, Initial residual = 0, Final residual = 0, No Iterations 0
time step continuity errors : sum local = 4.98435e-07, global = 4.98435e-07, cumulative = 1.14973e-05
smoothSolver:  Solving for omega, Initial residual = 0.000401483, Final residual = 8.5562e-07, No Iterations 1
smoothSolver:  Solving for k, Initial residual = 0.00493394, Final residual = 2.23158e-08, No Iterations 2
smoothSolver:  Solving for Bx, Initial residual = 0.0388939, Final residual = 1.31854e-07, No Iterations 2
smoothSolver:  Solving for By, Initial residual = 0.0573591, Final residual = 2.77584e-07, No Iterations 2
DICPCG:  Solving for pB, Initial residual = 0.0257072, Final residual = 9.90007e-06, No Iterations 259
magnetic flux divergence error = 7.54513e-14
smoothSolver:  Solving for Bx, Initial residual = 1.30866e-07, Final residual = 1.30866e-07, No Iterations 0
smoothSolver:  Solving for By, Initial residual = 4.19421e-07, Final residual = 4.19421e-07, No Iterations 0
DICPCG:  Solving for pB, Initial residual = 9.68398e-06, Final residual = 9.68398e-06, No Iterations 0
magnetic flux divergence error = 7.54513e-14
smoothSolver:  Solving for Bx, Initial residual = 1.30866e-07, Final residual = 1.30866e-07, No Iterations 0
smoothSolver:  Solving for By, Initial residual = 4.19421e-07, Final residual = 4.19421e-07, No Iterations 0
DICPCG:  Solving for pB, Initial residual = 9.68398e-06, Final residual = 9.68398e-06, No Iterations 0
magnetic flux divergence error = 7.54513e-14
ExecutionTime = 66.18 s  ClockTime = 66 s

Courant Number mean: 0.000387835 max: 0.000607536
Time = 0.00024

PIMPLE: iteration 1
diagonal:  Solving for rho, Initial residual = 0, Final residual = 0, No Iterations 0
smoothSolver:  Solving for Ux, Initial residual = 0.0554286, Final residual = 2.37531e-10, No Iterations 4
smoothSolver:  Solving for Uy, Initial residual = 0.0353152, Final residual = 1.385e-10, No Iterations 4
smoothSolver:  Solving for h, Initial residual = 0.0391543, Final residual = 1.55436e-07, No Iterations 2
smoothSolver:  Solving for p_rgh, Initial residual = 0.864913, Final residual = 0.864773, No Iterations 1000
diagonal:  Solving for rho, Initial residual = 0, Final residual = 0, No Iterations 0
time step continuity errors : sum local = 4.97405e-07, global = 4.97405e-07, cumulative = 1.19947e-05
smoothSolver:  Solving for omega, Initial residual = 0.000375644, Final residual = 8.07565e-07, No Iterations 1
smoothSolver:  Solving for k, Initial residual = 0.00473046, Final residual = 2.16208e-08, No Iterations 2
smoothSolver:  Solving for Bx, Initial residual = 0.0367977, Final residual = 1.26331e-07, No Iterations 2
smoothSolver:  Solving for By, Initial residual = 0.0635856, Final residual = 3.07779e-07, No Iterations 2
DICPCG:  Solving for pB, Initial residual = 0.02487, Final residual = 9.94639e-06, No Iterations 429
magnetic flux divergence error = 7.91654e-14
smoothSolver:  Solving for Bx, Initial residual = 1.25481e-07, Final residual = 1.25481e-07, No Iterations 0
smoothSolver:  Solving for By, Initial residual = 4.75877e-07, Final residual = 4.75877e-07, No Iterations 0
DICPCG:  Solving for pB, Initial residual = 9.74355e-06, Final residual = 9.74355e-06, No Iterations 0
magnetic flux divergence error = 7.91654e-14
smoothSolver:  Solving for Bx, Initial residual = 1.25481e-07, Final residual = 1.25481e-07, No Iterations 0
smoothSolver:  Solving for By, Initial residual = 4.75877e-07, Final residual = 4.75877e-07, No Iterations 0
DICPCG:  Solving for pB, Initial residual = 9.74355e-06, Final residual = 9.74355e-06, No Iterations 0
magnetic flux divergence error = 7.91654e-14
ExecutionTime = 68.95 s  ClockTime = 69 s

Courant Number mean: 0.000400835 max: 0.000610148
Time = 0.00025

PIMPLE: iteration 1
diagonal:  Solving for rho, Initial residual = 0, Final residual = 0, No Iterations 0
smoothSolver:  Solving for Ux, Initial residual = 0.0540866, Final residual = 2.31114e-10, No Iterations 4
smoothSolver:  Solving for Uy, Initial residual = 0.0338283, Final residual = 1.32119e-10, No Iterations 4
smoothSolver:  Solving for h, Initial residual = 0.0374156, Final residual = 1.48207e-07, No Iterations 2
smoothSolver:  Solving for p_rgh, Initial residual = 0.872022, Final residual = 0.8719, No Iterations 1000
diagonal:  Solving for rho, Initial residual = 0, Final residual = 0, No Iterations 0
time step continuity errors : sum local = 4.96007e-07, global = 4.96007e-07, cumulative = 1.24907e-05
smoothSolver:  Solving for omega, Initial residual = 0.000352605, Final residual = 7.63826e-07, No Iterations 1
smoothSolver:  Solving for k, Initial residual = 0.00454256, Final residual = 9.68059e-06, No Iterations 1
smoothSolver:  Solving for Bx, Initial residual = 0.0347298, Final residual = 1.20869e-07, No Iterations 2
smoothSolver:  Solving for By, Initial residual = 0.0720113, Final residual = 3.48712e-07, No Iterations 2
DICPCG:  Solving for pB, Initial residual = 0.0240935, Final residual = 9.83194e-06, No Iterations 302
magnetic flux divergence error = 8.1533e-14
smoothSolver:  Solving for Bx, Initial residual = 1.20223e-07, Final residual = 1.20223e-07, No Iterations 0
smoothSolver:  Solving for By, Initial residual = 5.56112e-07, Final residual = 5.56112e-07, No Iterations 0
DICPCG:  Solving for pB, Initial residual = 9.63506e-06, Final residual = 9.63506e-06, No Iterations 0
magnetic flux divergence error = 8.1533e-14
smoothSolver:  Solving for Bx, Initial residual = 1.20223e-07, Final residual = 1.20223e-07, No Iterations 0
smoothSolver:  Solving for By, Initial residual = 5.56112e-07, Final residual = 5.56112e-07, No Iterations 0
DICPCG:  Solving for pB, Initial residual = 9.63506e-06, Final residual = 9.63506e-06, No Iterations 0
magnetic flux divergence error = 8.1533e-14
ExecutionTime = 71.58 s  ClockTime = 72 s

Courant Number mean: 0.000411989 max: 0.000612642
Time = 0.00026

PIMPLE: iteration 1
diagonal:  Solving for rho, Initial residual = 0, Final residual = 0, No Iterations 0
smoothSolver:  Solving for Ux, Initial residual = 0.0500567, Final residual = 2.1323e-10, No Iterations 4
smoothSolver:  Solving for Uy, Initial residual = 0.0320514, Final residual = 1.24446e-10, No Iterations 4
smoothSolver:  Solving for h, Initial residual = 0.0358056, Final residual = 1.41577e-07, No Iterations 2
smoothSolver:  Solving for p_rgh, Initial residual = 0.883738, Final residual = 0.883631, No Iterations 1000
diagonal:  Solving for rho, Initial residual = 0, Final residual = 0, No Iterations 0
time step continuity errors : sum local = 4.94227e-07, global = 4.94227e-07, cumulative = 1.29849e-05
smoothSolver:  Solving for omega, Initial residual = 0.000331935, Final residual = 7.23851e-07, No Iterations 1
smoothSolver:  Solving for k, Initial residual = 0.00436831, Final residual = 9.36425e-06, No Iterations 1
smoothSolver:  Solving for Bx, Initial residual = 0.032676, Final residual = 1.15434e-07, No Iterations 2
smoothSolver:  Solving for By, Initial residual = 0.0837751, Final residual = 4.05947e-07, No Iterations 2
DICPCG:  Solving for pB, Initial residual = 0.0233487, Final residual = 9.99684e-06, No Iterations 356
magnetic flux divergence error = 8.62691e-14
smoothSolver:  Solving for Bx, Initial residual = 1.15036e-07, Final residual = 1.15036e-07, No Iterations 0
smoothSolver:  Solving for By, Initial residual = 6.72297e-07, Final residual = 6.72297e-07, No Iterations 0
DICPCG:  Solving for pB, Initial residual = 9.80654e-06, Final residual = 9.80654e-06, No Iterations 0
magnetic flux divergence error = 8.62691e-14
smoothSolver:  Solving for Bx, Initial residual = 1.15036e-07, Final residual = 1.15036e-07, No Iterations 0
smoothSolver:  Solving for By, Initial residual = 6.72297e-07, Final residual = 6.72297e-07, No Iterations 0
DICPCG:  Solving for pB, Initial residual = 9.80654e-06, Final residual = 9.80654e-06, No Iterations 0
magnetic flux divergence error = 8.62691e-14
ExecutionTime = 74.25 s  ClockTime = 74 s

Courant Number mean: 0.000420945 max: 0.000615023
Time = 0.00027

PIMPLE: iteration 1
diagonal:  Solving for rho, Initial residual = 0, Final residual = 0, No Iterations 0
smoothSolver:  Solving for Ux, Initial residual = 0.0427947, Final residual = 1.81618e-10, No Iterations 4
smoothSolver:  Solving for Uy, Initial residual = 0.0296739, Final residual = 1.14099e-10, No Iterations 4
smoothSolver:  Solving for h, Initial residual = 0.0343023, Final residual = 1.35441e-07, No Iterations 2
smoothSolver:  Solving for p_rgh, Initial residual = 0.901199, Final residual = 0.901104, No Iterations 1000
diagonal:  Solving for rho, Initial residual = 0, Final residual = 0, No Iterations 0
time step continuity errors : sum local = 4.92083e-07, global = 4.92083e-07, cumulative = 1.3477e-05
smoothSolver:  Solving for omega, Initial residual = 0.000313285, Final residual = 6.8718e-07, No Iterations 1
smoothSolver:  Solving for k, Initial residual = 0.00420537, Final residual = 9.07329e-06, No Iterations 1
smoothSolver:  Solving for Bx, Initial residual = 0.0306339, Final residual = 1.10022e-07, No Iterations 2
smoothSolver:  Solving for By, Initial residual = 0.100841, Final residual = 4.89103e-07, No Iterations 2
DICPCG:  Solving for pB, Initial residual = 0.0226372, Final residual = 9.84764e-06, No Iterations 349
magnetic flux divergence error = 8.82803e-14
smoothSolver:  Solving for Bx, Initial residual = 1.09888e-07, Final residual = 1.09888e-07, No Iterations 0
smoothSolver:  Solving for By, Initial residual = 8.46653e-07, Final residual = 8.46653e-07, No Iterations 0
DICPCG:  Solving for pB, Initial residual = 9.6669e-06, Final residual = 9.6669e-06, No Iterations 0
magnetic flux divergence error = 8.82803e-14
smoothSolver:  Solving for Bx, Initial residual = 1.09888e-07, Final residual = 1.09888e-07, No Iterations 0
smoothSolver:  Solving for By, Initial residual = 8.46653e-07, Final residual = 8.46653e-07, No Iterations 0
DICPCG:  Solving for pB, Initial residual = 9.6669e-06, Final residual = 9.6669e-06, No Iterations 0
magnetic flux divergence error = 8.82803e-14
ExecutionTime = 76.94 s  ClockTime = 77 s

Courant Number mean: 0.000427429 max: 0.000617297
Time = 0.00028

PIMPLE: iteration 1
diagonal:  Solving for rho, Initial residual = 0, Final residual = 0, No Iterations 0
smoothSolver:  Solving for Ux, Initial residual = 0.0323421, Final residual = 1.36461e-10, No Iterations 4
smoothSolver:  Solving for Uy, Initial residual = 0.0264592, Final residual = 1.00105e-10, No Iterations 4
smoothSolver:  Solving for h, Initial residual = 0.0328855, Final residual = 1.29703e-07, No Iterations 2
smoothSolver:  Solving for p_rgh, Initial residual = 0.924448, Final residual = 0.924363, No Iterations 1000
diagonal:  Solving for rho, Initial residual = 0, Final residual = 0, No Iterations 0
time step continuity errors : sum local = 4.89624e-07, global = 4.89624e-07, cumulative = 1.39666e-05
smoothSolver:  Solving for omega, Initial residual = 0.000296369, Final residual = 6.53431e-07, No Iterations 1
smoothSolver:  Solving for k, Initial residual = 0.00405316, Final residual = 8.80473e-06, No Iterations 1
smoothSolver:  Solving for Bx, Initial residual = 0.0286123, Final residual = 1.04657e-07, No Iterations 2
smoothSolver:  Solving for By, Initial residual = 0.126764, Final residual = 6.15614e-07, No Iterations 2
DICPCG:  Solving for pB, Initial residual = 0.0219407, Final residual = 9.82272e-06, No Iterations 347
magnetic flux divergence error = 9.13551e-14
smoothSolver:  Solving for Bx, Initial residual = 1.04786e-07, Final residual = 1.04786e-07, No Iterations 0
smoothSolver:  Solving for By, Initial residual = 1.12826e-06, Final residual = 1.12826e-06, No Iterations 0
DICPCG:  Solving for pB, Initial residual = 9.64804e-06, Final residual = 9.64804e-06, No Iterations 0
magnetic flux divergence error = 9.13551e-14
smoothSolver:  Solving for Bx, Initial residual = 1.04786e-07, Final residual = 1.04786e-07, No Iterations 0
smoothSolver:  Solving for By, Initial residual = 1.12826e-06, Final residual = 1.12826e-06, No Iterations 0
DICPCG:  Solving for pB, Initial residual = 9.64804e-06, Final residual = 9.64804e-06, No Iterations 0
magnetic flux divergence error = 9.13551e-14
ExecutionTime = 79.6 s  ClockTime = 80 s

Courant Number mean: 0.000431273 max: 0.000619467
Time = 0.00029

PIMPLE: iteration 1
diagonal:  Solving for rho, Initial residual = 0, Final residual = 0, No Iterations 0
smoothSolver:  Solving for Ux, Initial residual = 0.0195402, Final residual = 9.63604e-09, No Iterations 3
smoothSolver:  Solving for Uy, Initial residual = 0.0223655, Final residual = 9.89669e-09, No Iterations 3
smoothSolver:  Solving for h, Initial residual = 0.031537, Final residual = 1.24276e-07, No Iterations 2
smoothSolver:  Solving for p_rgh, Initial residual = 0.952402, Final residual = 0.952325, No Iterations 1000
diagonal:  Solving for rho, Initial residual = 0, Final residual = 0, No Iterations 0
time step continuity errors : sum local = 4.8692e-07, global = 4.8692e-07, cumulative = 1.44536e-05
smoothSolver:  Solving for omega, Initial residual = 0.000280955, Final residual = 6.22278e-07, No Iterations 1
smoothSolver:  Solving for k, Initial residual = 0.00391333, Final residual = 8.55579e-06, No Iterations 1
smoothSolver:  Solving for Bx, Initial residual = 0.0266265, Final residual = 9.93974e-08, No Iterations 2
smoothSolver:  Solving for By, Initial residual = 0.162755, Final residual = 7.91655e-07, No Iterations 2
DICPCG:  Solving for pB, Initial residual = 0.0212424, Final residual = 9.9249e-06, No Iterations 320
magnetic flux divergence error = 9.56407e-14
smoothSolver:  Solving for Bx, Initial residual = 9.9782e-08, Final residual = 9.9782e-08, No Iterations 0
smoothSolver:  Solving for By, Initial residual = 1.60942e-06, Final residual = 1.60942e-06, No Iterations 0
DICPCG:  Solving for pB, Initial residual = 9.75444e-06, Final residual = 9.75444e-06, No Iterations 0
magnetic flux divergence error = 9.56407e-14
smoothSolver:  Solving for Bx, Initial residual = 9.9782e-08, Final residual = 9.9782e-08, No Iterations 0
smoothSolver:  Solving for By, Initial residual = 1.60942e-06, Final residual = 1.60942e-06, No Iterations 0
DICPCG:  Solving for pB, Initial residual = 9.75444e-06, Final residual = 9.75444e-06, No Iterations 0
magnetic flux divergence error = 9.56407e-14
ExecutionTime = 82.23 s  ClockTime = 82 s

Courant Number mean: 0.000432428 max: 0.00062154
Time = 0.0003

PIMPLE: iteration 1
diagonal:  Solving for rho, Initial residual = 0, Final residual = 0, No Iterations 0
smoothSolver:  Solving for Ux, Initial residual = 0.00599416, Final residual = 2.54448e-09, No Iterations 3
smoothSolver:  Solving for Uy, Initial residual = 0.0177478, Final residual = 7.52939e-09, No Iterations 3
smoothSolver:  Solving for h, Initial residual = 0.0302412, Final residual = 1.19104e-07, No Iterations 2
smoothSolver:  Solving for p_rgh, Initial residual = 0.98059, Final residual = 0.98052, No Iterations 1000
diagonal:  Solving for rho, Initial residual = 0, Final residual = 0, No Iterations 0
time step continuity errors : sum local = 4.84051e-07, global = 4.84051e-07, cumulative = 1.49376e-05
smoothSolver:  Solving for omega, Initial residual = 0.000266851, Final residual = 5.93448e-07, No Iterations 1
smoothSolver:  Solving for k, Initial residual = 0.00379838, Final residual = 8.32388e-06, No Iterations 1
smoothSolver:  Solving for Bx, Initial residual = 0.0246854, Final residual = 9.42552e-08, No Iterations 2
smoothSolver:  Solving for By, Initial residual = 0.189455, Final residual = 9.23265e-07, No Iterations 2
DICPCG:  Solving for pB, Initial residual = 0.0205216, Final residual = 9.83194e-06, No Iterations 347
magnetic flux divergence error = 9.80426e-14
smoothSolver:  Solving for Bx, Initial residual = 9.48819e-08, Final residual = 9.48819e-08, No Iterations 0
smoothSolver:  Solving for By, Initial residual = 1.45517e-06, Final residual = 1.45517e-06, No Iterations 0
DICPCG:  Solving for pB, Initial residual = 9.67005e-06, Final residual = 9.67005e-06, No Iterations 0
magnetic flux divergence error = 9.80426e-14
smoothSolver:  Solving for Bx, Initial residual = 9.48819e-08, Final residual = 9.48819e-08, No Iterations 0
smoothSolver:  Solving for By, Initial residual = 1.45517e-06, Final residual = 1.45517e-06, No Iterations 0
DICPCG:  Solving for pB, Initial residual = 9.67005e-06, Final residual = 9.67005e-06, No Iterations 0
magnetic flux divergence error = 9.80426e-14
ExecutionTime = 84.88 s  ClockTime = 85 s

Courant Number mean: 0.000430957 max: 0.00062352
Time = 0.00031

PIMPLE: iteration 1
diagonal:  Solving for rho, Initial residual = 0, Final residual = 0, No Iterations 0
smoothSolver:  Solving for Ux, Initial residual = 0.0111815, Final residual = 5.02745e-09, No Iterations 3
smoothSolver:  Solving for Uy, Initial residual = 0.0137806, Final residual = 5.57636e-09, No Iterations 3
smoothSolver:  Solving for h, Initial residual = 0.0289864, Final residual = 1.14134e-07, No Iterations 2
smoothSolver:  Solving for p_rgh, Initial residual = 0.959775, Final residual = 0.959711, No Iterations 1000
diagonal:  Solving for rho, Initial residual = 0, Final residual = 0, No Iterations 0
time step continuity errors : sum local = 4.811e-07, global = 4.811e-07, cumulative = 1.54187e-05
smoothSolver:  Solving for omega, Initial residual = 0.000253898, Final residual = 5.66703e-07, No Iterations 1
smoothSolver:  Solving for k, Initial residual = 0.00369867, Final residual = 8.1011e-06, No Iterations 1
smoothSolver:  Solving for Bx, Initial residual = 0.0227987, Final residual = 8.92306e-08, No Iterations 2
smoothSolver:  Solving for By, Initial residual = 0.171079, Final residual = 8.35499e-07, No Iterations 2
DICPCG:  Solving for pB, Initial residual = 0.0197795, Final residual = 9.79843e-06, No Iterations 303
magnetic flux divergence error = 1.00972e-13
smoothSolver:  Solving for Bx, Initial residual = 9.0095e-08, Final residual = 9.0095e-08, No Iterations 0
smoothSolver:  Solving for By, Initial residual = 1.03488e-06, Final residual = 1.03488e-06, No Iterations 0
DICPCG:  Solving for pB, Initial residual = 9.64205e-06, Final residual = 9.64205e-06, No Iterations 0
magnetic flux divergence error = 1.00972e-13
smoothSolver:  Solving for Bx, Initial residual = 9.0095e-08, Final residual = 9.0095e-08, No Iterations 0
smoothSolver:  Solving for By, Initial residual = 1.03488e-06, Final residual = 1.03488e-06, No Iterations 0
DICPCG:  Solving for pB, Initial residual = 9.64205e-06, Final residual = 9.64205e-06, No Iterations 0
magnetic flux divergence error = 1.00972e-13
ExecutionTime = 87.51 s  ClockTime = 88 s

Courant Number mean: 0.000427021 max: 0.000625411
Time = 0.00032

PIMPLE: iteration 1
diagonal:  Solving for rho, Initial residual = 0, Final residual = 0, No Iterations 0
smoothSolver:  Solving for Ux, Initial residual = 0.022567, Final residual = 9.02987e-11, No Iterations 4
smoothSolver:  Solving for Uy, Initial residual = 0.012311, Final residual = 4.94523e-09, No Iterations 3
smoothSolver:  Solving for h, Initial residual = 0.0277641, Final residual = 1.09334e-07, No Iterations 2
smoothSolver:  Solving for p_rgh, Initial residual = 0.934342, Final residual = 0.934285, No Iterations 1000
diagonal:  Solving for rho, Initial residual = 0, Final residual = 0, No Iterations 0
time step continuity errors : sum local = 4.78138e-07, global = 4.78138e-07, cumulative = 1.58968e-05
smoothSolver:  Solving for omega, Initial residual = 0.000241962, Final residual = 5.41841e-07, No Iterations 1
smoothSolver:  Solving for k, Initial residual = 0.00360241, Final residual = 7.88604e-06, No Iterations 1
smoothSolver:  Solving for Bx, Initial residual = 0.0209794, Final residual = 8.43556e-08, No Iterations 2
smoothSolver:  Solving for By, Initial residual = 0.129171, Final residual = 6.32279e-07, No Iterations 2
DICPCG:  Solving for pB, Initial residual = 0.0190156, Final residual = 9.99305e-06, No Iterations 303
magnetic flux divergence error = 1.06323e-13
smoothSolver:  Solving for Bx, Initial residual = 8.54276e-08, Final residual = 8.54276e-08, No Iterations 0
smoothSolver:  Solving for By, Initial residual = 7.87889e-07, Final residual = 7.87889e-07, No Iterations 0
DICPCG:  Solving for pB, Initial residual = 9.83747e-06, Final residual = 9.83747e-06, No Iterations 0
magnetic flux divergence error = 1.06323e-13
smoothSolver:  Solving for Bx, Initial residual = 8.54276e-08, Final residual = 8.54276e-08, No Iterations 0
smoothSolver:  Solving for By, Initial residual = 7.87889e-07, Final residual = 7.87889e-07, No Iterations 0
DICPCG:  Solving for pB, Initial residual = 9.83747e-06, Final residual = 9.83747e-06, No Iterations 0
magnetic flux divergence error = 1.06323e-13
ExecutionTime = 90.11 s  ClockTime = 90 s

Courant Number mean: 0.000420854 max: 0.000627217
Time = 0.00033

PIMPLE: iteration 1
diagonal:  Solving for rho, Initial residual = 0, Final residual = 0, No Iterations 0
smoothSolver:  Solving for Ux, Initial residual = 0.0317267, Final residual = 1.28919e-10, No Iterations 4
smoothSolver:  Solving for Uy, Initial residual = 0.0129675, Final residual = 5.46194e-09, No Iterations 3
smoothSolver:  Solving for h, Initial residual = 0.0265696, Final residual = 1.04676e-07, No Iterations 2
smoothSolver:  Solving for p_rgh, Initial residual = 0.91408, Final residual = 0.91403, No Iterations 1000
diagonal:  Solving for rho, Initial residual = 0, Final residual = 0, No Iterations 0
time step continuity errors : sum local = 4.75225e-07, global = 4.75225e-07, cumulative = 1.63721e-05
smoothSolver:  Solving for omega, Initial residual = 0.000230929, Final residual = 5.18682e-07, No Iterations 1
smoothSolver:  Solving for k, Initial residual = 0.00350928, Final residual = 7.68014e-06, No Iterations 1
smoothSolver:  Solving for Bx, Initial residual = 0.0192403, Final residual = 7.96449e-08, No Iterations 2
smoothSolver:  Solving for By, Initial residual = 0.102721, Final residual = 5.03952e-07, No Iterations 2
DICPCG:  Solving for pB, Initial residual = 0.0182544, Final residual = 9.9154e-06, No Iterations 304
magnetic flux divergence error = 1.08824e-13
smoothSolver:  Solving for Bx, Initial residual = 8.09294e-08, Final residual = 8.09294e-08, No Iterations 0
smoothSolver:  Solving for By, Initial residual = 6.35622e-07, Final residual = 6.35622e-07, No Iterations 0
DICPCG:  Solving for pB, Initial residual = 9.76606e-06, Final residual = 9.76606e-06, No Iterations 0
magnetic flux divergence error = 1.08824e-13
smoothSolver:  Solving for Bx, Initial residual = 8.09294e-08, Final residual = 8.09294e-08, No Iterations 0
smoothSolver:  Solving for By, Initial residual = 6.35622e-07, Final residual = 6.35622e-07, No Iterations 0
DICPCG:  Solving for pB, Initial residual = 9.76606e-06, Final residual = 9.76606e-06, No Iterations 0
magnetic flux divergence error = 1.08824e-13
ExecutionTime = 92.73 s  ClockTime = 93 s

Courant Number mean: 0.000412735 max: 0.000628942
Time = 0.00034

PIMPLE: iteration 1
diagonal:  Solving for rho, Initial residual = 0, Final residual = 0, No Iterations 0
smoothSolver:  Solving for Ux, Initial residual = 0.0383732, Final residual = 1.56888e-10, No Iterations 4
smoothSolver:  Solving for Uy, Initial residual = 0.0151238, Final residual = 6.70989e-09, No Iterations 3
smoothSolver:  Solving for h, Initial residual = 0.0254007, Final residual = 1.00141e-07, No Iterations 2
smoothSolver:  Solving for p_rgh, Initial residual = 0.899329, Final residual = 0.899285, No Iterations 1000
diagonal:  Solving for rho, Initial residual = 0, Final residual = 0, No Iterations 0
time step continuity errors : sum local = 4.72403e-07, global = 4.72403e-07, cumulative = 1.68445e-05
smoothSolver:  Solving for omega, Initial residual = 0.000220705, Final residual = 4.97071e-07, No Iterations 1
smoothSolver:  Solving for k, Initial residual = 0.00341883, Final residual = 7.48379e-06, No Iterations 1
smoothSolver:  Solving for Bx, Initial residual = 0.0175917, Final residual = 7.5123e-08, No Iterations 2
smoothSolver:  Solving for By, Initial residual = 0.0857784, Final residual = 4.21741e-07, No Iterations 2
DICPCG:  Solving for pB, Initial residual = 0.0175056, Final residual = 9.88221e-06, No Iterations 258
magnetic flux divergence error = 1.11766e-13
smoothSolver:  Solving for Bx, Initial residual = 7.66055e-08, Final residual = 7.66055e-08, No Iterations 0
smoothSolver:  Solving for By, Initial residual = 5.35391e-07, Final residual = 5.35391e-07, No Iterations 0
DICPCG:  Solving for pB, Initial residual = 9.73739e-06, Final residual = 9.73739e-06, No Iterations 0
magnetic flux divergence error = 1.11766e-13
smoothSolver:  Solving for Bx, Initial residual = 7.66055e-08, Final residual = 7.66055e-08, No Iterations 0
smoothSolver:  Solving for By, Initial residual = 5.35391e-07, Final residual = 5.35391e-07, No Iterations 0
DICPCG:  Solving for pB, Initial residual = 9.73739e-06, Final residual = 9.73739e-06, No Iterations 0
magnetic flux divergence error = 1.11766e-13
ExecutionTime = 95.35 s  ClockTime = 95 s

Courant Number mean: 0.000402962 max: 0.00063059
Time = 0.00035

PIMPLE: iteration 1
diagonal:  Solving for rho, Initial residual = 0, Final residual = 0, No Iterations 0
smoothSolver:  Solving for Ux, Initial residual = 0.0427767, Final residual = 1.75373e-10, No Iterations 4
smoothSolver:  Solving for Uy, Initial residual = 0.0173603, Final residual = 7.93781e-09, No Iterations 3
smoothSolver:  Solving for h, Initial residual = 0.0242576, Final residual = 9.57231e-08, No Iterations 2
smoothSolver:  Solving for p_rgh, Initial residual = 0.889493, Final residual = 0.889453, No Iterations 1000
diagonal:  Solving for rho, Initial residual = 0, Final residual = 0, No Iterations 0
time step continuity errors : sum local = 4.69695e-07, global = 4.69695e-07, cumulative = 1.73142e-05
smoothSolver:  Solving for omega, Initial residual = 0.000211206, Final residual = 4.76872e-07, No Iterations 1
smoothSolver:  Solving for k, Initial residual = 0.0033303, Final residual = 7.29595e-06, No Iterations 1
smoothSolver:  Solving for Bx, Initial residual = 0.0160397, Final residual = 7.0808e-08, No Iterations 2
smoothSolver:  Solving for By, Initial residual = 0.0743046, Final residual = 3.66076e-07, No Iterations 2
DICPCG:  Solving for pB, Initial residual = 0.0167774, Final residual = 9.82139e-06, No Iterations 309
magnetic flux divergence error = 1.14363e-13
smoothSolver:  Solving for Bx, Initial residual = 7.24734e-08, Final residual = 7.24734e-08, No Iterations 0
smoothSolver:  Solving for By, Initial residual = 4.66256e-07, Final residual = 4.66256e-07, No Iterations 0
DICPCG:  Solving for pB, Initial residual = 9.68335e-06, Final residual = 9.68335e-06, No Iterations 0
magnetic flux divergence error = 1.14363e-13
smoothSolver:  Solving for Bx, Initial residual = 7.24734e-08, Final residual = 7.24734e-08, No Iterations 0
smoothSolver:  Solving for By, Initial residual = 4.66256e-07, Final residual = 4.66256e-07, No Iterations 0
DICPCG:  Solving for pB, Initial residual = 9.68335e-06, Final residual = 9.68335e-06, No Iterations 0
magnetic flux divergence error = 1.14363e-13
ExecutionTime = 98.02 s  ClockTime = 98 s

Courant Number mean: 0.000391827 max: 0.000632165
Time = 0.00036

PIMPLE: iteration 1
diagonal:  Solving for rho, Initial residual = 0, Final residual = 0, No Iterations 0
smoothSolver:  Solving for Ux, Initial residual = 0.0454227, Final residual = 1.86435e-10, No Iterations 4
smoothSolver:  Solving for Uy, Initial residual = 0.0190337, Final residual = 8.83164e-09, No Iterations 3
smoothSolver:  Solving for h, Initial residual = 0.0231412, Final residual = 9.14224e-08, No Iterations 2
smoothSolver:  Solving for p_rgh, Initial residual = 0.883624, Final residual = 0.883591, No Iterations 1000
diagonal:  Solving for rho, Initial residual = 0, Final residual = 0, No Iterations 0
time step continuity errors : sum local = 4.67112e-07, global = 4.67112e-07, cumulative = 1.77813e-05
smoothSolver:  Solving for omega, Initial residual = 0.000202362, Final residual = 4.57961e-07, No Iterations 1
smoothSolver:  Solving for k, Initial residual = 0.00324343, Final residual = 7.116e-06, No Iterations 1
smoothSolver:  Solving for Bx, Initial residual = 0.01508, Final residual = 6.67084e-08, No Iterations 2
smoothSolver:  Solving for By, Initial residual = 0.0661763, Final residual = 3.26631e-07, No Iterations 2
DICPCG:  Solving for pB, Initial residual = 0.0160902, Final residual = 9.58595e-06, No Iterations 258
magnetic flux divergence error = 1.14809e-13
smoothSolver:  Solving for Bx, Initial residual = 6.8541e-08, Final residual = 6.8541e-08, No Iterations 0
smoothSolver:  Solving for By, Initial residual = 4.17104e-07, Final residual = 4.17104e-07, No Iterations 0
DICPCG:  Solving for pB, Initial residual = 9.45345e-06, Final residual = 9.45345e-06, No Iterations 0
magnetic flux divergence error = 1.14809e-13
smoothSolver:  Solving for Bx, Initial residual = 6.8541e-08, Final residual = 6.8541e-08, No Iterations 0
smoothSolver:  Solving for By, Initial residual = 4.17104e-07, Final residual = 4.17104e-07, No Iterations 0
DICPCG:  Solving for pB, Initial residual = 9.45345e-06, Final residual = 9.45345e-06, No Iterations 0
magnetic flux divergence error = 1.14809e-13
ExecutionTime = 100.62 s  ClockTime = 101 s

Courant Number mean: 0.000379605 max: 0.000633669
Time = 0.00037

PIMPLE: iteration 1
diagonal:  Solving for rho, Initial residual = 0, Final residual = 0, No Iterations 0
smoothSolver:  Solving for Ux, Initial residual = 0.04682, Final residual = 1.92224e-10, No Iterations 4
smoothSolver:  Solving for Uy, Initial residual = 0.0201552, Final residual = 9.41129e-09, No Iterations 3
[...]
magnetic flux divergence error = 7.97469e-13
ExecutionTime = 1571.06 s  ClockTime = 1572 s

Courant Number mean: 0.00045294 max: 0.000684274
Time = 0.00655

PIMPLE: iteration 1
diagonal:  Solving for rho, Initial residual = 0, Final residual = 0, No Iterations 0
smoothSolver:  Solving for Ux, Initial residual = 0.00494549, Final residual = 1.76277e-09, No Iterations 3
smoothSolver:  Solving for Uy, Initial residual = 0.00136919, Final residual = 3.44923e-10, No Iterations 3
smoothSolver:  Solving for h, Initial residual = 0.000785701, Final residual = 4.45955e-09, No Iterations 2
smoothSolver:  Solving for p_rgh, Initial residual = 0.939095, Final residual = 0.939095, No Iterations 1000
diagonal:  Solving for rho, Initial residual = 0, Final residual = 0, No Iterations 0
time step continuity errors : sum local = 1.02063e-07, global = 1.02063e-07, cumulative = -5.3687e-05
smoothSolver:  Solving for omega, Initial residual = 9.89961e-06, Final residual = 9.89961e-06, No Iterations 0
smoothSolver:  Solving for k, Initial residual = 0.000179267, Final residual = 4.97335e-07, No Iterations 1
smoothSolver:  Solving for Bx, Initial residual = 0.000971251, Final residual = 2.13211e-06, No Iterations 1
smoothSolver:  Solving for By, Initial residual = 0.00304009, Final residual = 6.82766e-06, No Iterations 1
DICPCG:  Solving for pB, Initial residual = 0.00157595, Final residual = 9.82027e-06, No Iterations 91
magnetic flux divergence error = 8.04576e-13
smoothSolver:  Solving for Bx, Initial residual = 2.13073e-06, Final residual = 2.13073e-06, No Iterations 0
smoothSolver:  Solving for By, Initial residual = 6.82488e-06, Final residual = 6.82488e-06, No Iterations 0
DICPCG:  Solving for pB, Initial residual = 9.82189e-06, Final residual = 9.82189e-06, No Iterations 0
magnetic flux divergence error = 8.04576e-13
smoothSolver:  Solving for Bx, Initial residual = 2.13073e-06, Final residual = 2.13073e-06, No Iterations 0
smoothSolver:  Solving for By, Initial residual = 6.82488e-06, Final residual = 6.82488e-06, No Iterations 0
DICPCG:  Solving for pB, Initial residual = 9.82189e-06, Final residual = 9.82189e-06, No Iterations 0
magnetic flux divergence error = 8.04576e-13
ExecutionTime = 1573.4 s  ClockTime = 1574 s

Courant Number mean: 0.000452047 max: 0.000684255
Time = 0.00656

PIMPLE: iteration 1
diagonal:  Solving for rho, Initial residual = 0, Final residual = 0, No Iterations 0
smoothSolver:  Solving for Ux, Initial residual = 0.00491648, Final residual = 1.75271e-09, No Iterations 3
smoothSolver:  Solving for Uy, Initial residual = 0.00137351, Final residual = 3.45993e-10, No Iterations 3
smoothSolver:  Solving for h, Initial residual = 0.000782745, Final residual = 4.44631e-09, No Iterations 2
smoothSolver:  Solving for p_rgh, Initial residual = 0.940607, Final residual = 0.940607, No Iterations 1000
diagonal:  Solving for rho, Initial residual = 0, Final residual = 0, No Iterations 0
time step continuity errors : sum local = 1.04592e-07, global = 1.04592e-07, cumulative = -5.35825e-05
smoothSolver:  Solving for omega, Initial residual = 9.90258e-06, Final residual = 9.90258e-06, No Iterations 0
smoothSolver:  Solving for k, Initial residual = 0.000178899, Final residual = 4.96696e-07, No Iterations 1
smoothSolver:  Solving for Bx, Initial residual = 0.00096897, Final residual = 2.12786e-06, No Iterations 1
smoothSolver:  Solving for By, Initial residual = 0.00309161, Final residual = 6.94449e-06, No Iterations 1
DICPCG:  Solving for pB, Initial residual = 0.00158217, Final residual = 9.86055e-06, No Iterations 91
magnetic flux divergence error = 8.07611e-13
smoothSolver:  Solving for Bx, Initial residual = 2.12648e-06, Final residual = 2.12648e-06, No Iterations 0
smoothSolver:  Solving for By, Initial residual = 6.94198e-06, Final residual = 6.94198e-06, No Iterations 0
DICPCG:  Solving for pB, Initial residual = 9.86221e-06, Final residual = 9.86221e-06, No Iterations 0
magnetic flux divergence error = 8.07611e-13
smoothSolver:  Solving for Bx, Initial residual = 2.12648e-06, Final residual = 2.12648e-06, No Iterations 0
smoothSolver:  Solving for By, Initial residual = 6.94198e-06, Final residual = 6.94198e-06, No Iterations 0
DICPCG:  Solving for pB, Initial residual = 9.86221e-06, Final residual = 9.86221e-06, No Iterations 0
magnetic flux divergence error = 8.07611e-13
ExecutionTime = 1575.76 s  ClockTime = 1576 s

Courant Number mean: 0.000451156 max: 0.000684236
Time = 0.00657

PIMPLE: iteration 1
diagonal:  Solving for rho, Initial residual = 0, Final residual = 0, No Iterations 0
smoothSolver:  Solving for Ux, Initial residual = 0.00490919, Final residual = 1.75102e-09, No Iterations 3
smoothSolver:  Solving for Uy, Initial residual = 0.00137862, Final residual = 3.47298e-10, No Iterations 3
smoothSolver:  Solving for h, Initial residual = 0.000779817, Final residual = 4.43317e-09, No Iterations 2
smoothSolver:  Solving for p_rgh, Initial residual = 0.942049, Final residual = 0.942049, No Iterations 1000
diagonal:  Solving for rho, Initial residual = 0, Final residual = 0, No Iterations 0
time step continuity errors : sum local = 1.0711e-07, global = 1.0711e-07, cumulative = -5.34753e-05
smoothSolver:  Solving for omega, Initial residual = 9.90572e-06, Final residual = 9.90572e-06, No Iterations 0
smoothSolver:  Solving for k, Initial residual = 0.000178543, Final residual = 4.96073e-07, No Iterations 1
smoothSolver:  Solving for Bx, Initial residual = 0.00096678, Final residual = 2.12372e-06, No Iterations 1
smoothSolver:  Solving for By, Initial residual = 0.00314269, Final residual = 7.06031e-06, No Iterations 1
DICPCG:  Solving for pB, Initial residual = 0.00158843, Final residual = 9.94802e-06, No Iterations 91
magnetic flux divergence error = 8.14503e-13
smoothSolver:  Solving for Bx, Initial residual = 2.12235e-06, Final residual = 2.12235e-06, No Iterations 0
smoothSolver:  Solving for By, Initial residual = 7.05808e-06, Final residual = 7.05808e-06, No Iterations 0
DICPCG:  Solving for pB, Initial residual = 9.94973e-06, Final residual = 9.94973e-06, No Iterations 0
magnetic flux divergence error = 8.14503e-13
smoothSolver:  Solving for Bx, Initial residual = 2.12235e-06, Final residual = 2.12235e-06, No Iterations 0
smoothSolver:  Solving for By, Initial residual = 7.05808e-06, Final residual = 7.05808e-06, No Iterations 0
DICPCG:  Solving for pB, Initial residual = 9.94973e-06, Final residual = 9.94973e-06, No Iterations 0
magnetic flux divergence error = 8.14503e-13
ExecutionTime = 1578.14 s  ClockTime = 1579 s

Courant Number mean: 0.000450261 max: 0.000684217
Time = 0.00658

PIMPLE: iteration 1
diagonal:  Solving for rho, Initial residual = 0, Final residual = 0, No Iterations 0
smoothSolver:  Solving for Ux, Initial residual = 0.00492322, Final residual = 1.75752e-09, No Iterations 3
smoothSolver:  Solving for Uy, Initial residual = 0.00138388, Final residual = 3.48636e-10, No Iterations 3
smoothSolver:  Solving for h, Initial residual = 0.000776916, Final residual = 4.42013e-09, No Iterations 2
smoothSolver:  Solving for p_rgh, Initial residual = 0.943425, Final residual = 0.943425, No Iterations 1000
diagonal:  Solving for rho, Initial residual = 0, Final residual = 0, No Iterations 0
time step continuity errors : sum local = 1.09618e-07, global = 1.09618e-07, cumulative = -5.33657e-05
smoothSolver:  Solving for omega, Initial residual = 9.90905e-06, Final residual = 9.90905e-06, No Iterations 0
smoothSolver:  Solving for k, Initial residual = 0.000178196, Final residual = 4.95465e-07, No Iterations 1
smoothSolver:  Solving for Bx, Initial residual = 0.000964682, Final residual = 2.1197e-06, No Iterations 1
smoothSolver:  Solving for By, Initial residual = 0.00319329, Final residual = 7.17506e-06, No Iterations 1
DICPCG:  Solving for pB, Initial residual = 0.0015947, Final residual = 9.98833e-06, No Iterations 91
magnetic flux divergence error = 8.17523e-13
smoothSolver:  Solving for Bx, Initial residual = 2.11834e-06, Final residual = 2.11834e-06, No Iterations 0
smoothSolver:  Solving for By, Initial residual = 7.1731e-06, Final residual = 7.1731e-06, No Iterations 0
DICPCG:  Solving for pB, Initial residual = 9.9901e-06, Final residual = 9.9901e-06, No Iterations 0
magnetic flux divergence error = 8.17523e-13
smoothSolver:  Solving for Bx, Initial residual = 2.11834e-06, Final residual = 2.11834e-06, No Iterations 0
smoothSolver:  Solving for By, Initial residual = 7.1731e-06, Final residual = 7.1731e-06, No Iterations 0
DICPCG:  Solving for pB, Initial residual = 9.9901e-06, Final residual = 9.9901e-06, No Iterations 0
magnetic flux divergence error = 8.17523e-13
ExecutionTime = 1580.47 s  ClockTime = 1581 s

Courant Number mean: 0.000449359 max: 0.000684198
Time = 0.00659

PIMPLE: iteration 1
diagonal:  Solving for rho, Initial residual = 0, Final residual = 0, No Iterations 0
smoothSolver:  Solving for Ux, Initial residual = 0.00495798, Final residual = 1.77197e-09, No Iterations 3
smoothSolver:  Solving for Uy, Initial residual = 0.00138898, Final residual = 3.49982e-10, No Iterations 3
smoothSolver:  Solving for h, Initial residual = 0.000774041, Final residual = 4.40718e-09, No Iterations 2
smoothSolver:  Solving for p_rgh, Initial residual = 0.944735, Final residual = 0.944735, No Iterations 1000
diagonal:  Solving for rho, Initial residual = 0, Final residual = 0, No Iterations 0
time step continuity errors : sum local = 1.12114e-07, global = 1.12114e-07, cumulative = -5.32536e-05
smoothSolver:  Solving for omega, Initial residual = 9.91258e-06, Final residual = 9.91258e-06, No Iterations 0
smoothSolver:  Solving for k, Initial residual = 0.000177858, Final residual = 4.94869e-07, No Iterations 1
smoothSolver:  Solving for Bx, Initial residual = 0.000962678, Final residual = 2.11582e-06, No Iterations 1
smoothSolver:  Solving for By, Initial residual = 0.00324339, Final residual = 7.28868e-06, No Iterations 1
DICPCG:  Solving for pB, Initial residual = 0.00160099, Final residual = 9.78371e-06, No Iterations 92
magnetic flux divergence error = 8.00491e-13
smoothSolver:  Solving for Bx, Initial residual = 2.11446e-06, Final residual = 2.11446e-06, No Iterations 0
smoothSolver:  Solving for By, Initial residual = 7.28701e-06, Final residual = 7.28701e-06, No Iterations 0
DICPCG:  Solving for pB, Initial residual = 9.7855e-06, Final residual = 9.7855e-06, No Iterations 0
magnetic flux divergence error = 8.00491e-13
smoothSolver:  Solving for Bx, Initial residual = 2.11446e-06, Final residual = 2.11446e-06, No Iterations 0
smoothSolver:  Solving for By, Initial residual = 7.28701e-06, Final residual = 7.28701e-06, No Iterations 0
DICPCG:  Solving for pB, Initial residual = 9.7855e-06, Final residual = 9.7855e-06, No Iterations 0
magnetic flux divergence error = 8.00491e-13
ExecutionTime = 1582.8 s  ClockTime = 1583 s

Courant Number mean: 0.000448446 max: 0.000684178
Time = 0.0066

PIMPLE: iteration 1
diagonal:  Solving for rho, Initial residual = 0, Final residual = 0, No Iterations 0
smoothSolver:  Solving for Ux, Initial residual = 0.00501272, Final residual = 1.79405e-09, No Iterations 3
smoothSolver:  Solving for Uy, Initial residual = 0.0013936, Final residual = 3.51308e-10, No Iterations 3
smoothSolver:  Solving for h, Initial residual = 0.000771191, Final residual = 4.39432e-09, No Iterations 2
smoothSolver:  Solving for p_rgh, Initial residual = 0.945977, Final residual = 0.945977, No Iterations 1000
diagonal:  Solving for rho, Initial residual = 0, Final residual = 0, No Iterations 0
time step continuity errors : sum local = 1.146e-07, global = 1.146e-07, cumulative = -5.3139e-05
smoothSolver:  Solving for omega, Initial residual = 9.91633e-06, Final residual = 9.91633e-06, No Iterations 0
smoothSolver:  Solving for k, Initial residual = 0.000177525, Final residual = 4.94284e-07, No Iterations 1
smoothSolver:  Solving for Bx, Initial residual = 0.000960771, Final residual = 2.11207e-06, No Iterations 1
smoothSolver:  Solving for By, Initial residual = 0.00329296, Final residual = 7.40112e-06, No Iterations 1
DICPCG:  Solving for pB, Initial residual = 0.00160657, Final residual = 9.78728e-06, No Iterations 92
magnetic flux divergence error = 8.00489e-13
smoothSolver:  Solving for Bx, Initial residual = 2.11072e-06, Final residual = 2.11072e-06, No Iterations 0
smoothSolver:  Solving for By, Initial residual = 7.39974e-06, Final residual = 7.39974e-06, No Iterations 0
DICPCG:  Solving for pB, Initial residual = 9.78914e-06, Final residual = 9.78914e-06, No Iterations 0
magnetic flux divergence error = 8.00489e-13
smoothSolver:  Solving for Bx, Initial residual = 2.11072e-06, Final residual = 2.11072e-06, No Iterations 0
smoothSolver:  Solving for By, Initial residual = 7.39974e-06, Final residual = 7.39974e-06, No Iterations 0
DICPCG:  Solving for pB, Initial residual = 9.78914e-06, Final residual = 9.78914e-06, No Iterations 0
magnetic flux divergence error = 8.00489e-13
ExecutionTime = 1585.16 s  ClockTime = 1586 s

Courant Number mean: 0.000447518 max: 0.000684158
Time = 0.00661

PIMPLE: iteration 1
diagonal:  Solving for rho, Initial residual = 0, Final residual = 0, No Iterations 0
smoothSolver:  Solving for Ux, Initial residual = 0.00508652, Final residual = 1.82334e-09, No Iterations 3
smoothSolver:  Solving for Uy, Initial residual = 0.00139796, Final residual = 3.52596e-10, No Iterations 3
smoothSolver:  Solving for h, Initial residual = 0.000768365, Final residual = 4.38156e-09, No Iterations 2
smoothSolver:  Solving for p_rgh, Initial residual = 0.947165, Final residual = 0.947165, No Iterations 1000
diagonal:  Solving for rho, Initial residual = 0, Final residual = 0, No Iterations 0
time step continuity errors : sum local = 1.17074e-07, global = 1.17074e-07, cumulative = -5.30219e-05
smoothSolver:  Solving for omega, Initial residual = 9.92035e-06, Final residual = 9.92035e-06, No Iterations 0
smoothSolver:  Solving for k, Initial residual = 0.000177199, Final residual = 4.93708e-07, No Iterations 1
smoothSolver:  Solving for Bx, Initial residual = 0.000958962, Final residual = 2.10846e-06, No Iterations 1
smoothSolver:  Solving for By, Initial residual = 0.00334198, Final residual = 7.5123e-06, No Iterations 1
DICPCG:  Solving for pB, Initial residual = 0.00161268, Final residual = 9.82159e-06, No Iterations 92
magnetic flux divergence error = 8.0299e-13
smoothSolver:  Solving for Bx, Initial residual = 2.10712e-06, Final residual = 2.10712e-06, No Iterations 0
smoothSolver:  Solving for By, Initial residual = 7.51119e-06, Final residual = 7.51119e-06, No Iterations 0
DICPCG:  Solving for pB, Initial residual = 9.82351e-06, Final residual = 9.82351e-06, No Iterations 0
magnetic flux divergence error = 8.0299e-13
smoothSolver:  Solving for Bx, Initial residual = 2.10712e-06, Final residual = 2.10712e-06, No Iterations 0
smoothSolver:  Solving for By, Initial residual = 7.51119e-06, Final residual = 7.51119e-06, No Iterations 0
DICPCG:  Solving for pB, Initial residual = 9.82351e-06, Final residual = 9.82351e-06, No Iterations 0
magnetic flux divergence error = 8.0299e-13
ExecutionTime = 1587.48 s  ClockTime = 1588 s

Courant Number mean: 0.000446572 max: 0.000684138
Time = 0.00662

PIMPLE: iteration 1
diagonal:  Solving for rho, Initial residual = 0, Final residual = 0, No Iterations 0
smoothSolver:  Solving for Ux, Initial residual = 0.00517832, Final residual = 1.85933e-09, No Iterations 3
smoothSolver:  Solving for Uy, Initial residual = 0.00140484, Final residual = 3.53859e-10, No Iterations 3
smoothSolver:  Solving for h, Initial residual = 0.000765574, Final residual = 4.36889e-09, No Iterations 2
smoothSolver:  Solving for p_rgh, Initial residual = 0.948417, Final residual = 0.948417, No Iterations 1000
diagonal:  Solving for rho, Initial residual = 0, Final residual = 0, No Iterations 0
time step continuity errors : sum local = 1.19537e-07, global = 1.19537e-07, cumulative = -5.29024e-05
smoothSolver:  Solving for omega, Initial residual = 9.92505e-06, Final residual = 9.92505e-06, No Iterations 0
smoothSolver:  Solving for k, Initial residual = 0.000176879, Final residual = 4.93142e-07, No Iterations 1
smoothSolver:  Solving for Bx, Initial residual = 0.000957253, Final residual = 2.10499e-06, No Iterations 1
smoothSolver:  Solving for By, Initial residual = 0.00339043, Final residual = 7.62217e-06, No Iterations 1
DICPCG:  Solving for pB, Initial residual = 0.00161862, Final residual = 9.86708e-06, No Iterations 92
magnetic flux divergence error = 8.06392e-13
smoothSolver:  Solving for Bx, Initial residual = 2.10366e-06, Final residual = 2.10366e-06, No Iterations 0
smoothSolver:  Solving for By, Initial residual = 7.62135e-06, Final residual = 7.62135e-06, No Iterations 0
DICPCG:  Solving for pB, Initial residual = 9.86907e-06, Final residual = 9.86907e-06, No Iterations 0
magnetic flux divergence error = 8.06392e-13
smoothSolver:  Solving for Bx, Initial residual = 2.10366e-06, Final residual = 2.10366e-06, No Iterations 0
smoothSolver:  Solving for By, Initial residual = 7.62135e-06, Final residual = 7.62135e-06, No Iterations 0
DICPCG:  Solving for pB, Initial residual = 9.86907e-06, Final residual = 9.86907e-06, No Iterations 0
magnetic flux divergence error = 8.06392e-13
ExecutionTime = 1589.83 s  ClockTime = 1590 s

Courant Number mean: 0.000445605 max: 0.000684118
Time = 0.00663

PIMPLE: iteration 1
diagonal:  Solving for rho, Initial residual = 0, Final residual = 0, No Iterations 0
smoothSolver:  Solving for Ux, Initial residual = 0.00528711, Final residual = 1.90143e-09, No Iterations 3
smoothSolver:  Solving for Uy, Initial residual = 0.00141069, Final residual = 3.5506e-10, No Iterations 3
smoothSolver:  Solving for h, Initial residual = 0.000762804, Final residual = 4.35631e-09, No Iterations 2
smoothSolver:  Solving for p_rgh, Initial residual = 0.949602, Final residual = 0.949602, No Iterations 1000
diagonal:  Solving for rho, Initial residual = 0, Final residual = 0, No Iterations 0
time step continuity errors : sum local = 1.21989e-07, global = 1.21989e-07, cumulative = -5.27804e-05
smoothSolver:  Solving for omega, Initial residual = 9.93068e-06, Final residual = 9.93068e-06, No Iterations 0
smoothSolver:  Solving for k, Initial residual = 0.000176563, Final residual = 4.92584e-07, No Iterations 1
smoothSolver:  Solving for Bx, Initial residual = 0.000955643, Final residual = 2.10167e-06, No Iterations 1
smoothSolver:  Solving for By, Initial residual = 0.0034383, Final residual = 7.73071e-06, No Iterations 1
DICPCG:  Solving for pB, Initial residual = 0.00162438, Final residual = 9.91749e-06, No Iterations 92
magnetic flux divergence error = 8.10184e-13
smoothSolver:  Solving for Bx, Initial residual = 2.10034e-06, Final residual = 2.10034e-06, No Iterations 0
smoothSolver:  Solving for By, Initial residual = 7.73018e-06, Final residual = 7.73018e-06, No Iterations 0
DICPCG:  Solving for pB, Initial residual = 9.91955e-06, Final residual = 9.91955e-06, No Iterations 0
magnetic flux divergence error = 8.10184e-13
smoothSolver:  Solving for Bx, Initial residual = 2.10034e-06, Final residual = 2.10034e-06, No Iterations 0
smoothSolver:  Solving for By, Initial residual = 7.73018e-06, Final residual = 7.73018e-06, No Iterations 0
DICPCG:  Solving for pB, Initial residual = 9.91955e-06, Final residual = 9.91955e-06, No Iterations 0
magnetic flux divergence error = 8.10184e-13
ExecutionTime = 1592.19 s  ClockTime = 1593 s

Courant Number mean: 0.000444614 max: 0.000684097
Time = 0.00664

PIMPLE: iteration 1
diagonal:  Solving for rho, Initial residual = 0, Final residual = 0, No Iterations 0
smoothSolver:  Solving for Ux, Initial residual = 0.00541239, Final residual = 1.94895e-09, No Iterations 3
smoothSolver:  Solving for Uy, Initial residual = 0.0014162, Final residual = 3.56194e-10, No Iterations 3
smoothSolver:  Solving for h, Initial residual = 0.000760059, Final residual = 4.34383e-09, No Iterations 2
