/*---------------------------------------------------------------------------*\
| =========                 |                                                 |
| \\      /  F ield         | OpenFOAM: The Open Source CFD Toolbox           |
|  \\    /   O peration     | Version:  2512                                  |
|   \\  /    A nd           | Website:  www.openfoam.com                      |
|    \\/     M anipulation  |                                                 |
\*---------------------------------------------------------------------------*/
Build  : _87ed40d256-20251219 OPENFOAM=2512 version=v2512
Arch   : "LSB;label=32;scalar=64"
Exec   : magnetoHDFoam
Date   : May 11 2026
Time   : 23:23:56
Host   : lilcube
PID    : 301434
I/O    : uncollated
Case   : /home/chizh/OpenFOAM/run/magnetoHD_test/hartmann
nProcs : 1
trapFpe: Floating point exception trapping enabled (FOAM_SIGFPE).
memory pool : not available
fileModificationChecking : Monitoring run-time modified files using timeStampMaster (fileModificationSkew 5, maxFileModificationPolls 20)
allowSystemOperations : Allowing user-supplied system call operations

// * * * * * * * * * * * * * * * * * * * * * * * * * * * * * * * * * * * * * //
Create time

Create mesh for time = 0


PIMPLE: Operating solver in PISO mode


PISO: Operating solver in PISO mode


BPISO: Operating solver in PISO mode

Reading thermophysical properties

Selecting thermodynamics package 
{
    type            heRhoThermo;
    mixture         pureMixture;
    transport       const;
    thermo          hConst;
    equationOfState Boussinesq;
    specie          specie;
    energy          sensibleEnthalpy;
}

Reading field U

Reading/calculating face flux field phi

Creating turbulence model

Selecting turbulence model type RAS
Selecting RAS turbulence model kOmegaSST


--> FOAM FATAL IO ERROR: (openfoam-2512)
Unknown patchField type nutWallFunction for patch type patch

Valid patchField types :

147
(
MarshakRadiation
MarshakRadiationFixedTemperature
acousticWaveTransmissive
advective
alphaFixedPressure
alphatJayatillekeWallFunction
atmAlphatkWallFunction
atmBoundaryLayerInletEpsilon
atmBoundaryLayerInletK
atmBoundaryLayerInletOmega
atmEpsilonWallFunction
atmNutUWallFunction
atmNutWallFunction
atmNutkWallFunction
atmOmegaWallFunction
atmTurbulentHeatFluxTemperature
calculated
codedFixedValue
codedMixed
compressible::alphatJayatillekeWallFunction
compressible::alphatWallFunction
compressible::thermalBaffle1D<hConstSolidThermoPhysics>
compressible::thermalBaffle1D<hPowerSolidThermoPhysics>
compressible::thermalShell
compressible::turbulentTemperatureCoupledBaffleMixed
compressible::turbulentTemperatureRadCoupledMixed
constantAlphaContactAngle
convectiveHeatTransfer
cyclic
cyclicACMI
cyclicAMI
cyclicSlip
directionMixed
dynamicAlphaContactAngle
electrostaticDeposition
empty
energyJump
energyJumpAMI
enthalpySorption
epsilonWallFunction
exprFixedValue
exprMixed
externalWallHeatFluxTemperature
extrapolatedCalculated
fan
fanPressure
fixedEnergy
fixedFluxExtrapolatedPressure
fixedFluxPressure
fixedGradient
fixedIncidentRadiation
fixedInternalValue
fixedJump
fixedJumpAMI
fixedMean
fixedMeanOutletInlet
fixedPressureCompressibleDensity
fixedProfile
fixedUnburntEnthalpy
fixedValue
freestream
freestreamPressure
gradientEnergy
gradientUnburntEnthalpy
greyDiffusiveRadiation
greyDiffusiveRadiationViewFactor
humidityTemperatureCoupledMixed
inletOutlet
inletOutletTotalTemperature
interfaceCompression
kLowReWallFunction
kqRWallFunction
lumpedMassWallTemperature
mapped
mappedField
mappedFixedInternalValue
mappedFixedPushedInternalValue
mappedMixed
mappedMixedField
mixed
mixedEnergy
mixedUnburntEnthalpy
nonuniformTransformCyclic
nutLowReWallFunction
nutTabulatedWallFunction
nutUBlendedWallFunction
nutURoughWallFunction
nutUSpaldingWallFunction
nutUWallFunction
nutkRoughWallFunction
nutkWallFunction
omegaWallFunction
outletInlet
outletMachNumberPressure
outletMappedUniformInlet
outletMappedUniformInletHeatAddition
overset
partialSlip
phaseHydrostaticPressure
plenumPressure
porousBafflePressure
prghPermeableAlphaTotalPressure
prghPressure
prghTotalHydrostaticPressure
prghTotalPressure
processor
processorCyclic
rotatingTotalPressure
scaledFixedValue
semiPermeableBaffleMassFraction
sliced
slip
sorptionWallFunction
speciesSorption
specularRadiation
symmetry
symmetryPlane
syringePressure
temperatureDependentAlphaContactAngle
timeVaryingAlphaContactAngle
timeVaryingMappedFixedValue
timeVaryingMassSorption
totalFlowRateAdvectiveDiffusive
totalPressure
totalTemperature
turbulentDigitalFilterInlet
turbulentInlet
turbulentIntensityKineticEnergyInlet
turbulentMixingLengthDissipationRateInlet
turbulentMixingLengthFrequencyInlet
uniformDensityHydrostaticPressure
uniformFixedGradient
uniformFixedValue
uniformInletOutlet
uniformJump
uniformJumpAMI
uniformMixed
uniformTotalPressure
variableHeightFlowRate
vibrationShell
wallHeatTransfer
waveSurfacePressure
waveTransmissive
wedge
wideBandDiffusiveRadiation
zeroGradient
zeroValue
)


file: 0/nut/boundaryField/lowerWall at line 38 to 39.

    From static Foam::tmp<Foam::fvPatchField<Type> > Foam::fvPatchField<Type>::New(const Foam::fvPatch&, const Foam::DimensionedField<Type, Foam::volMesh>&, const Foam::dictionary&) [with Type = double]
    in file /opt/OpenFOAM/OpenFOAM-v2512/src/finiteVolume/lnInclude/fvPatchFieldNew.C at line 124.

FOAM exiting

