/*---------------------------------------------------------------------------*\
| =========                 |                                                 |
| \\      /  F ield         | OpenFOAM: The Open Source CFD Toolbox           |
|  \\    /   O peration     | Version:  2512                                  |
|   \\  /    A nd           | Website:  www.openfoam.com                      |
|    \\/     M anipulation  |                                                 |
\*---------------------------------------------------------------------------*/
Build  : _87ed40d256-20251219 OPENFOAM=2512 version=v2512
Arch   : "LSB;label=32;scalar=64"
Exec   : magnetoHDFoam
Date   : May 12 2026
Time   : 11:03:59
Host   : Raf
PID    : 344570
I/O    : uncollated
Case   : /home/Raf/OpenFOAM/run/mhdTURBtest1
nProcs : 1
trapFpe: Floating point exception trapping enabled (FOAM_SIGFPE).
memory pool : not available
fileModificationChecking : Monitoring run-time modified files using timeStampMaster (fileModificationSkew 5, maxFileModificationPolls 20)
allowSystemOperations : Allowing user-supplied system call operations

// * * * * * * * * * * * * * * * * * * * * * * * * * * * * * * * * * * * * * //
Create time

Create mesh for time = 0


PIMPLE: Operating solver in PISO mode


PISO: Operating solver in PISO mode


BPISO: Operating solver in PISO mode

Reading thermophysical properties

Selecting thermodynamics package 
{
    type            heRhoThermo;
    mixture         pureMixture;
    transport       const;
    thermo          hConst;
    equationOfState Boussinesq;
    specie          specie;
    energy          sensibleEnthalpy;
}

Reading field U

Reading/calculating face flux field phi

Creating turbulence model

Selecting turbulence model type RAS
Selecting RAS turbulence model kOmegaSST
Selecting patchDistMethod meshWave
RAS
{
    model           kOmegaSST;
    turbulence      on;
    printCoeffs     on;
    alphaK1         0.85;
    alphaK2         1;
    alphaOmega1     0.5;
    alphaOmega2     0.856;
    gamma1          0.555556;
    gamma2          0.44;
    beta1           0.075;
    beta2           0.0828;
    betaStar        0.09;
    a1              0.31;
    b1              1;
    c1              10;
    F3              false;
    decayControl    false;
    kInf            0;
    omegaInf        0;
}


Reading g

Reading hRef
Calculating field g.h

Reading field p_rgh

Creating field dpdt

Creating field kinetic energy K

No MRF models present

No finite volume options present
Reading field pB

Reading field B

Calculating face flux phiB

Reading transportProperties

Courant Number mean: -0.000125 max: -0

Starting time loop

Courant Number mean: -0.000125 max: -0
Time = 0.005

PIMPLE: iteration 1
diagonal:  Solving for rho, Initial residual = 0, Final residual = 0, No Iterations 0
smoothSolver:  Solving for Ux, Initial residual = 1, Final residual = 5.16956e-06, No Iterations 12
smoothSolver:  Solving for Uy, Initial residual = 1, Final residual = 8.81913e-06, No Iterations 15
smoothSolver:  Solving for h, Initial residual = 0.00375964, Final residual = 0.00288199, No Iterations 1000
smoothSolver:  Solving for p_rgh, Initial residual = 0.941119, Final residual = 0.477878, No Iterations 1000
diagonal:  Solving for rho, Initial residual = 0, Final residual = 0, No Iterations 0
time step continuity errors : sum local = -0.000249939, global = 0.000249938, cumulative = 0.000249938
smoothSolver:  Solving for omega, Initial residual = 0.145963, Final residual = 9.0869e-06, No Iterations 6
smoothSolver:  Solving for k, Initial residual = 1, Final residual = 5.09789e-06, No Iterations 13
[stack trace]
=============
#1  Foam::sigFpe::sigHandler(int) in /opt/OpenFOAM/OpenFOAM-v2512/platforms/linux64GccDPInt32Opt/lib/libOpenFOAM.so
#2  ? in /usr/lib/libc.so.6
#3  ? in /usr/lib/libm.so.6
#4  Foam::nutUWallFunctionFvPatchScalarField::calcYPlus(Foam::Field<double> const&) const in /opt/OpenFOAM/OpenFOAM-v2512/platforms/linux64GccDPInt32Opt/lib/libturbulenceModels.so
#5  Foam::nutUWallFunctionFvPatchScalarField::calcNut() const in /opt/OpenFOAM/OpenFOAM-v2512/platforms/linux64GccDPInt32Opt/lib/libturbulenceModels.so
#6  Foam::nutWallFunctionFvPatchScalarField::updateCoeffs() in /opt/OpenFOAM/OpenFOAM-v2512/platforms/linux64GccDPInt32Opt/lib/libturbulenceModels.so
#7  Foam::GeometricBoundaryField<double, Foam::fvPatchField, Foam::volMesh>::evaluate(Foam::UPstream::commsTypes) in ~/OpenFOAM/Raf-v2512/platforms/linux64GccDPInt32Opt/bin/magnetoHDFoam
#8  Foam::kOmegaSSTBase<Foam::eddyViscosity<Foam::RASModel<Foam::EddyDiffusivity<Foam::ThermalDiffusivity<Foam::CompressibleTurbulenceModel<Foam::fluidThermo> > > > > >::correctNut(Foam::GeometricField<double, Foam::fvPatchField, Foam::volMesh> const&) in /opt/OpenFOAM/OpenFOAM-v2512/platforms/linux64GccDPInt32Opt/lib/libcompressibleTurbulenceModels.so
#9  Foam::kOmegaSSTBase<Foam::eddyViscosity<Foam::RASModel<Foam::EddyDiffusivity<Foam::ThermalDiffusivity<Foam::CompressibleTurbulenceModel<Foam::fluidThermo> > > > > >::correct() in /opt/OpenFOAM/OpenFOAM-v2512/platforms/linux64GccDPInt32Opt/lib/libcompressibleTurbulenceModels.so
#10  ? in ~/OpenFOAM/Raf-v2512/platforms/linux64GccDPInt32Opt/bin/magnetoHDFoam
#11  ? in /usr/lib/libc.so.6
#12  __libc_start_main in /usr/lib/libc.so.6
#13  ? in ~/OpenFOAM/Raf-v2512/platforms/linux64GccDPInt32Opt/bin/magnetoHDFoam
=============
