/*---------------------------------------------------------------------------*\
| =========                 |                                                 |
| \\      /  F ield         | OpenFOAM: The Open Source CFD Toolbox           |
|  \\    /   O peration     | Version:  2512                                  |
|   \\  /    A nd           | Website:  www.openfoam.com                      |
|    \\/     M anipulation  |                                                 |
\*---------------------------------------------------------------------------*/
Build  : _87ed40d256-20251219 OPENFOAM=2512 version=v2512
Arch   : "LSB;label=32;scalar=64"
Exec   : magnetoHDFoam
Date   : May 12 2026
Time   : 12:09:14
Host   : Raf
PID    : 348888
I/O    : uncollated
Case   : /home/Raf/OpenFOAM/run/mhdTURBtest1
nProcs : 1
trapFpe: Floating point exception trapping enabled (FOAM_SIGFPE).
memory pool : not available
fileModificationChecking : Monitoring run-time modified files using timeStampMaster (fileModificationSkew 5, maxFileModificationPolls 20)
allowSystemOperations : Allowing user-supplied system call operations

// * * * * * * * * * * * * * * * * * * * * * * * * * * * * * * * * * * * * * //
Create time

Create mesh for time = 0


PIMPLE: Operating solver in PISO mode


PISO: Operating solver in PISO mode


BPISO: Operating solver in PISO mode

Reading thermophysical properties

Selecting thermodynamics package 
{
    type            heRhoThermo;
    mixture         pureMixture;
    transport       const;
    thermo          hConst;
    equationOfState Boussinesq;
    specie          specie;
    energy          sensibleEnthalpy;
}

Reading field U

Reading/calculating face flux field phi

Creating turbulence model

Selecting turbulence model type laminar
Selecting laminar stress model Stokes

Reading g

Reading hRef
Calculating field g.h

Reading field p_rgh

Creating field dpdt

Creating field kinetic energy K

No MRF models present

No finite volume options present
Reading field pB

Reading field B

Calculating face flux phiB

Reading transportProperties

Courant Number mean: -2.5e-09 max: -0

Starting time loop

Courant Number mean: -2.5e-09 max: -0
Time = 1e-07

PIMPLE: iteration 1
diagonal:  Solving for rho, Initial residual = 0, Final residual = 0, No Iterations 0
smoothSolver:  Solving for Ux, Initial residual = 1, Final residual = 1.26641e-12, No Iterations 1
smoothSolver:  Solving for Uy, Initial residual = 1, Final residual = 2.8025e-12, No Iterations 1
smoothSolver:  Solving for h, Initial residual = 1.38769e-05, Final residual = 1.15306e-05, No Iterations 1000
smoothSolver:  Solving for p_rgh, Initial residual = 1, Final residual = 0.999987, No Iterations 1000
diagonal:  Solving for rho, Initial residual = 0, Final residual = 0, No Iterations 0
time step continuity errors : sum local = -5.00003e-09, global = 5e-09, cumulative = 5e-09
smoothSolver:  Solving for Bx, Initial residual = 1, Final residual = 1.54824e-07, No Iterations 1
smoothSolver:  Solving for By, Initial residual = 1, Final residual = 1.81755e-07, No Iterations 1
DICPCG:  Solving for pB, Initial residual = 1, Final residual = 9.18557e-06, No Iterations 532
magnetic flux divergence error = 1.83802e-19
smoothSolver:  Solving for Bx, Initial residual = 1.18223e-07, Final residual = 1.18223e-07, No Iterations 0
smoothSolver:  Solving for By, Initial residual = 2.06467e-07, Final residual = 2.06467e-07, No Iterations 0
DICPCG:  Solving for pB, Initial residual = 4.59278e-06, Final residual = 4.59278e-06, No Iterations 0
magnetic flux divergence error = 1.83802e-19
smoothSolver:  Solving for Bx, Initial residual = 1.18223e-07, Final residual = 1.18223e-07, No Iterations 0
smoothSolver:  Solving for By, Initial residual = 2.06467e-07, Final residual = 2.06467e-07, No Iterations 0
DICPCG:  Solving for pB, Initial residual = 4.59278e-06, Final residual = 4.59278e-06, No Iterations 0
magnetic flux divergence error = 1.83802e-19
ExecutionTime = 5.5 s  ClockTime = 5 s

Courant Number mean: -1.79967e-07 max: -2.43011e-14
Time = 2e-07

PIMPLE: iteration 1
diagonal:  Solving for rho, Initial residual = 0, Final residual = 0, No Iterations 0
smoothSolver:  Solving for Ux, Initial residual = 0.220469, Final residual = 3.82913e-13, No Iterations 1
smoothSolver:  Solving for Uy, Initial residual = 0.331466, Final residual = 6.0255e-13, No Iterations 1
smoothSolver:  Solving for h, Initial residual = 3.25759e-05, Final residual = 1.44783e-05, No Iterations 1000
smoothSolver:  Solving for p_rgh, Initial residual = 0.936634, Final residual = 0.32643, No Iterations 1000
diagonal:  Solving for rho, Initial residual = 0, Final residual = 0, No Iterations 0
time step continuity errors : sum local = -5.00002e-09, global = 5e-09, cumulative = 1e-08
smoothSolver:  Solving for Bx, Initial residual = 0.47829, Final residual = 7.42826e-08, No Iterations 1
smoothSolver:  Solving for By, Initial residual = 0.251735, Final residual = 4.735e-08, No Iterations 1
DICPCG:  Solving for pB, Initial residual = 0.329427, Final residual = 9.38633e-06, No Iterations 509
magnetic flux divergence error = 5.59666e-19
smoothSolver:  Solving for Bx, Initial residual = 5.92737e-08, Final residual = 5.92737e-08, No Iterations 0
smoothSolver:  Solving for By, Initial residual = 9.20536e-08, Final residual = 9.20536e-08, No Iterations 0
DICPCG:  Solving for pB, Initial residual = 7.06136e-06, Final residual = 7.06136e-06, No Iterations 0
magnetic flux divergence error = 5.59666e-19
smoothSolver:  Solving for Bx, Initial residual = 5.92737e-08, Final residual = 5.92737e-08, No Iterations 0
smoothSolver:  Solving for By, Initial residual = 9.20536e-08, Final residual = 9.20536e-08, No Iterations 0
DICPCG:  Solving for pB, Initial residual = 7.06136e-06, Final residual = 7.06136e-06, No Iterations 0
magnetic flux divergence error = 5.59666e-19
ExecutionTime = 10.35 s  ClockTime = 10 s

Courant Number mean: -3.28015e-07 max: -1.79947e-14
Time = 3e-07

PIMPLE: iteration 1
diagonal:  Solving for rho, Initial residual = 0, Final residual = 0, No Iterations 0
smoothSolver:  Solving for Ux, Initial residual = 0.120158, Final residual = 1.89099e-13, No Iterations 1
smoothSolver:  Solving for Uy, Initial residual = 0.301648, Final residual = 6.77479e-13, No Iterations 1
smoothSolver:  Solving for h, Initial residual = 3.56043e-05, Final residual = 1.54728e-05, No Iterations 1000
smoothSolver:  Solving for p_rgh, Initial residual = 0.60177, Final residual = 0.541094, No Iterations 1000
diagonal:  Solving for rho, Initial residual = 0, Final residual = 0, No Iterations 0
time step continuity errors : sum local = -5e-09, global = 5e-09, cumulative = 1.5e-08
smoothSolver:  Solving for Bx, Initial residual = 0.322437, Final residual = 5.01488e-08, No Iterations 1
smoothSolver:  Solving for By, Initial residual = 0.147457, Final residual = 2.8375e-08, No Iterations 1
DICPCG:  Solving for pB, Initial residual = 0.196077, Final residual = 9.41775e-06, No Iterations 492
magnetic flux divergence error = 9.28275e-19
smoothSolver:  Solving for Bx, Initial residual = 4.09729e-08, Final residual = 4.09729e-08, No Iterations 0
smoothSolver:  Solving for By, Initial residual = 5.69713e-08, Final residual = 5.69713e-08, No Iterations 0
DICPCG:  Solving for pB, Initial residual = 7.87463e-06, Final residual = 7.87463e-06, No Iterations 0
magnetic flux divergence error = 9.28275e-19
smoothSolver:  Solving for Bx, Initial residual = 4.09729e-08, Final residual = 4.09729e-08, No Iterations 0
smoothSolver:  Solving for By, Initial residual = 5.69713e-08, Final residual = 5.69713e-08, No Iterations 0
DICPCG:  Solving for pB, Initial residual = 7.87463e-06, Final residual = 7.87463e-06, No Iterations 0
magnetic flux divergence error = 9.28275e-19
ExecutionTime = 15.17 s  ClockTime = 15 s

Courant Number mean: -4.81183e-07 max: -4.33218e-15
Time = 4e-07

PIMPLE: iteration 1
diagonal:  Solving for rho, Initial residual = 0, Final residual = 0, No Iterations 0
smoothSolver:  Solving for Ux, Initial residual = 0.0917803, Final residual = 1.49874e-13, No Iterations 1
smoothSolver:  Solving for Uy, Initial residual = 0.250952, Final residual = 5.6205e-13, No Iterations 1
smoothSolver:  Solving for h, Initial residual = 4.03071e-05, Final residual = 1.55064e-05, No Iterations 1000
smoothSolver:  Solving for p_rgh, Initial residual = 0.624991, Final residual = 0.601755, No Iterations 1000
diagonal:  Solving for rho, Initial residual = 0, Final residual = 0, No Iterations 0
time step continuity errors : sum local = -5e-09, global = 5e-09, cumulative = 2e-08
smoothSolver:  Solving for Bx, Initial residual = 0.244262, Final residual = 3.802e-08, No Iterations 1
smoothSolver:  Solving for By, Initial residual = 0.105997, Final residual = 2.06784e-08, No Iterations 1
DICPCG:  Solving for pB, Initial residual = 0.139202, Final residual = 9.96629e-06, No Iterations 475
magnetic flux divergence error = 1.36469e-18
smoothSolver:  Solving for Bx, Initial residual = 3.18263e-08, Final residual = 3.18263e-08, No Iterations 0
smoothSolver:  Solving for By, Initial residual = 4.05389e-08, Final residual = 4.05389e-08, No Iterations 0
DICPCG:  Solving for pB, Initial residual = 8.74905e-06, Final residual = 8.74905e-06, No Iterations 0
magnetic flux divergence error = 1.36469e-18
smoothSolver:  Solving for Bx, Initial residual = 3.18263e-08, Final residual = 3.18263e-08, No Iterations 0
smoothSolver:  Solving for By, Initial residual = 4.05389e-08, Final residual = 4.05389e-08, No Iterations 0
DICPCG:  Solving for pB, Initial residual = 8.74905e-06, Final residual = 8.74905e-06, No Iterations 0
magnetic flux divergence error = 1.36469e-18
ExecutionTime = 19.96 s  ClockTime = 20 s

Courant Number mean: -6.37061e-07 max: -3.45593e-15
Time = 5e-07

PIMPLE: iteration 1
diagonal:  Solving for rho, Initial residual = 0, Final residual = 0, No Iterations 0
smoothSolver:  Solving for Ux, Initial residual = 0.0753201, Final residual = 1.26342e-13, No Iterations 1
smoothSolver:  Solving for Uy, Initial residual = 0.207315, Final residual = 4.65862e-13, No Iterations 1
smoothSolver:  Solving for h, Initial residual = 4.76211e-05, Final residual = 1.58643e-05, No Iterations 1000
smoothSolver:  Solving for p_rgh, Initial residual = 0.653747, Final residual = 0.641193, No Iterations 1000
diagonal:  Solving for rho, Initial residual = 0, Final residual = 0, No Iterations 0
time step continuity errors : sum local = -5e-09, global = 5e-09, cumulative = 2.5e-08
smoothSolver:  Solving for Bx, Initial residual = 0.196724, Final residual = 3.06363e-08, No Iterations 1
smoothSolver:  Solving for By, Initial residual = 0.0838435, Final residual = 1.65071e-08, No Iterations 1
DICPCG:  Solving for pB, Initial residual = 0.107778, Final residual = 9.73368e-06, No Iterations 467
magnetic flux divergence error = 1.70153e-18
smoothSolver:  Solving for Bx, Initial residual = 2.61964e-08, Final residual = 2.61964e-08, No Iterations 0
smoothSolver:  Solving for By, Initial residual = 3.15565e-08, Final residual = 3.15565e-08, No Iterations 0
DICPCG:  Solving for pB, Initial residual = 8.78734e-06, Final residual = 8.78734e-06, No Iterations 0
magnetic flux divergence error = 1.70153e-18
smoothSolver:  Solving for Bx, Initial residual = 2.61964e-08, Final residual = 2.61964e-08, No Iterations 0
smoothSolver:  Solving for By, Initial residual = 3.15565e-08, Final residual = 3.15565e-08, No Iterations 0
DICPCG:  Solving for pB, Initial residual = 8.78734e-06, Final residual = 8.78734e-06, No Iterations 0
magnetic flux divergence error = 1.70153e-18
ExecutionTime = 24.79 s  ClockTime = 25 s

Courant Number mean: -7.94242e-07 max: -4.16728e-15
Time = 6e-07

PIMPLE: iteration 1
diagonal:  Solving for rho, Initial residual = 0, Final residual = 0, No Iterations 0
smoothSolver:  Solving for Ux, Initial residual = 0.064632, Final residual = 1.10208e-13, No Iterations 1
smoothSolver:  Solving for Uy, Initial residual = 0.18232, Final residual = 4.10385e-13, No Iterations 1
smoothSolver:  Solving for h, Initial residual = 5.85624e-05, Final residual = 1.63283e-05, No Iterations 1000
smoothSolver:  Solving for p_rgh, Initial residual = 0.678708, Final residual = 0.670548, No Iterations 1000
diagonal:  Solving for rho, Initial residual = 0, Final residual = 0, No Iterations 0
time step continuity errors : sum local = -5e-09, global = 5e-09, cumulative = 3e-08
smoothSolver:  Solving for Bx, Initial residual = 0.164654, Final residual = 2.56516e-08, No Iterations 1
smoothSolver:  Solving for By, Initial residual = 0.0702147, Final residual = 1.38983e-08, No Iterations 1
DICPCG:  Solving for pB, Initial residual = 0.0878852, Final residual = 9.44421e-06, No Iterations 471
magnetic flux divergence error = 2.00452e-18
smoothSolver:  Solving for Bx, Initial residual = 2.23276e-08, Final residual = 2.23276e-08, No Iterations 0
smoothSolver:  Solving for By, Initial residual = 2.59631e-08, Final residual = 2.59631e-08, No Iterations 0
DICPCG:  Solving for pB, Initial residual = 8.68259e-06, Final residual = 8.68259e-06, No Iterations 0
magnetic flux divergence error = 2.00452e-18
smoothSolver:  Solving for Bx, Initial residual = 2.23276e-08, Final residual = 2.23276e-08, No Iterations 0
smoothSolver:  Solving for By, Initial residual = 2.59631e-08, Final residual = 2.59631e-08, No Iterations 0
DICPCG:  Solving for pB, Initial residual = 8.68259e-06, Final residual = 8.68259e-06, No Iterations 0
magnetic flux divergence error = 2.00452e-18
ExecutionTime = 29.58 s  ClockTime = 30 s

Courant Number mean: -9.52046e-07 max: -1.81561e-15
Time = 7e-07

PIMPLE: iteration 1
diagonal:  Solving for rho, Initial residual = 0, Final residual = 0, No Iterations 0
smoothSolver:  Solving for Ux, Initial residual = 0.0572588, Final residual = 9.86033e-14, No Iterations 1
smoothSolver:  Solving for Uy, Initial residual = 0.165619, Final residual = 3.74722e-13, No Iterations 1
smoothSolver:  Solving for h, Initial residual = 7.4302e-05, Final residual = 1.63526e-05, No Iterations 1000
smoothSolver:  Solving for p_rgh, Initial residual = 0.699482, Final residual = 0.693639, No Iterations 1000
diagonal:  Solving for rho, Initial residual = 0, Final residual = 0, No Iterations 0
time step continuity errors : sum local = -5e-09, global = 5e-09, cumulative = 3.5e-08
smoothSolver:  Solving for Bx, Initial residual = 0.14154, Final residual = 2.20571e-08, No Iterations 1
smoothSolver:  Solving for By, Initial residual = 0.0610343, Final residual = 1.21315e-08, No Iterations 1
DICPCG:  Solving for pB, Initial residual = 0.0741526, Final residual = 9.83431e-06, No Iterations 464
magnetic flux divergence error = 2.45157e-18
smoothSolver:  Solving for Bx, Initial residual = 1.94826e-08, Final residual = 1.94826e-08, No Iterations 0
smoothSolver:  Solving for By, Initial residual = 2.21742e-08, Final residual = 2.21742e-08, No Iterations 0
DICPCG:  Solving for pB, Initial residual = 9.15759e-06, Final residual = 9.15759e-06, No Iterations 0
magnetic flux divergence error = 2.45157e-18
smoothSolver:  Solving for Bx, Initial residual = 1.94826e-08, Final residual = 1.94826e-08, No Iterations 0
smoothSolver:  Solving for By, Initial residual = 2.21742e-08, Final residual = 2.21742e-08, No Iterations 0
DICPCG:  Solving for pB, Initial residual = 9.15759e-06, Final residual = 9.15759e-06, No Iterations 0
magnetic flux divergence error = 2.45157e-18
ExecutionTime = 34.36 s  ClockTime = 34 s

Courant Number mean: -1.11015e-06 max: -2.16293e-16
Time = 8e-07

PIMPLE: iteration 1
diagonal:  Solving for rho, Initial residual = 0, Final residual = 0, No Iterations 0
smoothSolver:  Solving for Ux, Initial residual = 0.0519746, Final residual = 9.00563e-14, No Iterations 1
smoothSolver:  Solving for Uy, Initial residual = 0.152779, Final residual = 3.47366e-13, No Iterations 1
smoothSolver:  Solving for h, Initial residual = 9.43335e-05, Final residual = 1.65914e-05, No Iterations 1000
smoothSolver:  Solving for p_rgh, Initial residual = 0.716836, Final residual = 0.712381, No Iterations 1000
diagonal:  Solving for rho, Initial residual = 0, Final residual = 0, No Iterations 0
time step continuity errors : sum local = -5e-09, global = 5e-09, cumulative = 4e-08
smoothSolver:  Solving for Bx, Initial residual = 0.124089, Final residual = 1.93423e-08, No Iterations 1
smoothSolver:  Solving for By, Initial residual = 0.0544859, Final residual = 1.08637e-08, No Iterations 1
DICPCG:  Solving for pB, Initial residual = 0.0641167, Final residual = 9.66802e-06, No Iterations 407
magnetic flux divergence error = 2.76458e-18
smoothSolver:  Solving for Bx, Initial residual = 1.72919e-08, Final residual = 1.72919e-08, No Iterations 0
smoothSolver:  Solving for By, Initial residual = 1.94715e-08, Final residual = 1.94715e-08, No Iterations 0
DICPCG:  Solving for pB, Initial residual = 9.08816e-06, Final residual = 9.08816e-06, No Iterations 0
magnetic flux divergence error = 2.76458e-18
smoothSolver:  Solving for Bx, Initial residual = 1.72919e-08, Final residual = 1.72919e-08, No Iterations 0
smoothSolver:  Solving for By, Initial residual = 1.94715e-08, Final residual = 1.94715e-08, No Iterations 0
DICPCG:  Solving for pB, Initial residual = 9.08816e-06, Final residual = 9.08816e-06, No Iterations 0
magnetic flux divergence error = 2.76458e-18
ExecutionTime = 39.05 s  ClockTime = 39 s

Courant Number mean: -1.26839e-06 max: -8.44756e-16
Time = 9e-07

PIMPLE: iteration 1
diagonal:  Solving for rho, Initial residual = 0, Final residual = 0, No Iterations 0
smoothSolver:  Solving for Ux, Initial residual = 0.0480921, Final residual = 8.36756e-14, No Iterations 1
smoothSolver:  Solving for Uy, Initial residual = 0.142438, Final residual = 3.24507e-13, No Iterations 1
smoothSolver:  Solving for h, Initial residual = 0.000120122, Final residual = 1.67857e-05, No Iterations 1000
smoothSolver:  Solving for p_rgh, Initial residual = 0.731477, Final residual = 0.727956, No Iterations 1000
diagonal:  Solving for rho, Initial residual = 0, Final residual = 0, No Iterations 0
time step continuity errors : sum local = -5e-09, global = 5e-09, cumulative = 4.5e-08
smoothSolver:  Solving for Bx, Initial residual = 0.11045, Final residual = 1.72199e-08, No Iterations 1
smoothSolver:  Solving for By, Initial residual = 0.0496331, Final residual = 9.92146e-09, No Iterations 1
DICPCG:  Solving for pB, Initial residual = 0.0564656, Final residual = 9.46764e-06, No Iterations 441
magnetic flux divergence error = 3.05115e-18
smoothSolver:  Solving for Bx, Initial residual = 1.55493e-08, Final residual = 1.55493e-08, No Iterations 0
smoothSolver:  Solving for By, Initial residual = 1.74729e-08, Final residual = 1.74729e-08, No Iterations 0
DICPCG:  Solving for pB, Initial residual = 8.96482e-06, Final residual = 8.96482e-06, No Iterations 0
magnetic flux divergence error = 3.05115e-18
smoothSolver:  Solving for Bx, Initial residual = 1.55493e-08, Final residual = 1.55493e-08, No Iterations 0
smoothSolver:  Solving for By, Initial residual = 1.74729e-08, Final residual = 1.74729e-08, No Iterations 0
DICPCG:  Solving for pB, Initial residual = 8.96482e-06, Final residual = 8.96482e-06, No Iterations 0
magnetic flux divergence error = 3.05115e-18
ExecutionTime = 43.81 s  ClockTime = 44 s

Courant Number mean: -1.42671e-06 max: -5.99224e-16
Time = 1e-06

PIMPLE: iteration 1
diagonal:  Solving for rho, Initial residual = 0, Final residual = 0, No Iterations 0
smoothSolver:  Solving for Ux, Initial residual = 0.0452041, Final residual = 7.88833e-14, No Iterations 1
smoothSolver:  Solving for Uy, Initial residual = 0.133954, Final residual = 3.05778e-13, No Iterations 1
smoothSolver:  Solving for h, Initial residual = 0.000152384, Final residual = 1.67817e-05, No Iterations 1000
smoothSolver:  Solving for p_rgh, Initial residual = 0.744008, Final residual = 0.741151, No Iterations 1000
diagonal:  Solving for rho, Initial residual = 0, Final residual = 0, No Iterations 0
time step continuity errors : sum local = -5e-09, global = 5e-09, cumulative = 5e-08
smoothSolver:  Solving for Bx, Initial residual = 0.0994991, Final residual = 1.55155e-08, No Iterations 1
smoothSolver:  Solving for By, Initial residual = 0.0459417, Final residual = 9.20546e-09, No Iterations 1
DICPCG:  Solving for pB, Initial residual = 0.0504476, Final residual = 9.67908e-06, No Iterations 434
magnetic flux divergence error = 3.46777e-18
smoothSolver:  Solving for Bx, Initial residual = 1.41283e-08, Final residual = 1.41283e-08, No Iterations 0
smoothSolver:  Solving for By, Initial residual = 1.59537e-08, Final residual = 1.59537e-08, No Iterations 0
DICPCG:  Solving for pB, Initial residual = 9.21769e-06, Final residual = 9.21769e-06, No Iterations 0
magnetic flux divergence error = 3.46777e-18
smoothSolver:  Solving for Bx, Initial residual = 1.41283e-08, Final residual = 1.41283e-08, No Iterations 0
smoothSolver:  Solving for By, Initial residual = 1.59537e-08, Final residual = 1.59537e-08, No Iterations 0
DICPCG:  Solving for pB, Initial residual = 9.21769e-06, Final residual = 9.21769e-06, No Iterations 0
magnetic flux divergence error = 3.46777e-18
ExecutionTime = 48.55 s  ClockTime = 49 s

Courant Number mean: -1.58505e-06 max: -6.83991e-16
Time = 1.1e-06

PIMPLE: iteration 1
diagonal:  Solving for rho, Initial residual = 0, Final residual = 0, No Iterations 0
smoothSolver:  Solving for Ux, Initial residual = 0.0430558, Final residual = 7.53031e-14, No Iterations 1
smoothSolver:  Solving for Uy, Initial residual = 0.126833, Final residual = 2.9008e-13, No Iterations 1
smoothSolver:  Solving for h, Initial residual = 0.000191848, Final residual = 1.68644e-05, No Iterations 1000
smoothSolver:  Solving for p_rgh, Initial residual = 0.754864, Final residual = 0.752504, No Iterations 1000
diagonal:  Solving for rho, Initial residual = 0, Final residual = 0, No Iterations 0
time step continuity errors : sum local = -5e-09, global = 5e-09, cumulative = 5.5e-08
smoothSolver:  Solving for Bx, Initial residual = 0.0905154, Final residual = 1.4117e-08, No Iterations 1
smoothSolver:  Solving for By, Initial residual = 0.0430851, Final residual = 8.65001e-09, No Iterations 1
DICPCG:  Solving for pB, Initial residual = 0.0455904, Final residual = 9.66158e-06, No Iterations 359
magnetic flux divergence error = 3.80666e-18
smoothSolver:  Solving for Bx, Initial residual = 1.29467e-08, Final residual = 1.29467e-08, No Iterations 0
smoothSolver:  Solving for By, Initial residual = 1.47753e-08, Final residual = 1.47753e-08, No Iterations 0
DICPCG:  Solving for pB, Initial residual = 9.24405e-06, Final residual = 9.24405e-06, No Iterations 0
magnetic flux divergence error = 3.80666e-18
smoothSolver:  Solving for Bx, Initial residual = 1.29467e-08, Final residual = 1.29467e-08, No Iterations 0
smoothSolver:  Solving for By, Initial residual = 1.47753e-08, Final residual = 1.47753e-08, No Iterations 0
DICPCG:  Solving for pB, Initial residual = 9.24405e-06, Final residual = 9.24405e-06, No Iterations 0
magnetic flux divergence error = 3.80666e-18
ExecutionTime = 53.2 s  ClockTime = 53 s

Courant Number mean: -1.74342e-06 max: -4.5157e-15
Time = 1.2e-06

PIMPLE: iteration 1
diagonal:  Solving for rho, Initial residual = 0, Final residual = 0, No Iterations 0
smoothSolver:  Solving for Ux, Initial residual = 0.0414829, Final residual = 7.26843e-14, No Iterations 1
smoothSolver:  Solving for Uy, Initial residual = 0.120747, Final residual = 2.76659e-13, No Iterations 1
smoothSolver:  Solving for h, Initial residual = 0.000239233, Final residual = 1.68405e-05, No Iterations 1000
smoothSolver:  Solving for p_rgh, Initial residual = 0.764368, Final residual = 0.762389, No Iterations 1000
diagonal:  Solving for rho, Initial residual = 0, Final residual = 0, No Iterations 0
time step continuity errors : sum local = -5e-09, global = 5e-09, cumulative = 6e-08
smoothSolver:  Solving for Bx, Initial residual = 0.0830137, Final residual = 1.29489e-08, No Iterations 1
smoothSolver:  Solving for By, Initial residual = 0.0408448, Final residual = 8.21121e-09, No Iterations 1
DICPCG:  Solving for pB, Initial residual = 0.0415881, Final residual = 9.58901e-06, No Iterations 435
magnetic flux divergence error = 4.11809e-18
smoothSolver:  Solving for Bx, Initial residual = 1.19483e-08, Final residual = 1.19483e-08, No Iterations 0
smoothSolver:  Solving for By, Initial residual = 1.38414e-08, Final residual = 1.38414e-08, No Iterations 0
DICPCG:  Solving for pB, Initial residual = 9.21052e-06, Final residual = 9.21052e-06, No Iterations 0
magnetic flux divergence error = 4.11809e-18
smoothSolver:  Solving for Bx, Initial residual = 1.19483e-08, Final residual = 1.19483e-08, No Iterations 0
smoothSolver:  Solving for By, Initial residual = 1.38414e-08, Final residual = 1.38414e-08, No Iterations 0
DICPCG:  Solving for pB, Initial residual = 9.21052e-06, Final residual = 9.21052e-06, No Iterations 0
magnetic flux divergence error = 4.11809e-18
ExecutionTime = 57.95 s  ClockTime = 58 s

Courant Number mean: -1.90179e-06 max: -3.42564e-14
Time = 1.3e-06

PIMPLE: iteration 1
diagonal:  Solving for rho, Initial residual = 0, Final residual = 0, No Iterations 0
smoothSolver:  Solving for Ux, Initial residual = 0.0403778, Final residual = 7.08534e-14, No Iterations 1
smoothSolver:  Solving for Uy, Initial residual = 0.115473, Final residual = 2.64988e-13, No Iterations 1
smoothSolver:  Solving for h, Initial residual = 0.00029513, Final residual = 1.67539e-05, No Iterations 1000
smoothSolver:  Solving for p_rgh, Initial residual = 0.77279, Final residual = 0.771106, No Iterations 1000
diagonal:  Solving for rho, Initial residual = 0, Final residual = 0, No Iterations 0
time step continuity errors : sum local = -5e-09, global = 5e-09, cumulative = 6.5e-08
smoothSolver:  Solving for Bx, Initial residual = 0.0766559, Final residual = 1.19589e-08, No Iterations 1
smoothSolver:  Solving for By, Initial residual = 0.0390708, Final residual = 7.86564e-09, No Iterations 1
DICPCG:  Solving for pB, Initial residual = 0.0382334, Final residual = 9.83405e-06, No Iterations 399
magnetic flux divergence error = 4.56973e-18
smoothSolver:  Solving for Bx, Initial residual = 1.10934e-08, Final residual = 1.10934e-08, No Iterations 0
smoothSolver:  Solving for By, Initial residual = 1.30996e-08, Final residual = 1.30996e-08, No Iterations 0
DICPCG:  Solving for pB, Initial residual = 9.47546e-06, Final residual = 9.47546e-06, No Iterations 0
magnetic flux divergence error = 4.56973e-18
smoothSolver:  Solving for Bx, Initial residual = 1.10934e-08, Final residual = 1.10934e-08, No Iterations 0
smoothSolver:  Solving for By, Initial residual = 1.30996e-08, Final residual = 1.30996e-08, No Iterations 0
DICPCG:  Solving for pB, Initial residual = 9.47546e-06, Final residual = 9.47546e-06, No Iterations 0
magnetic flux divergence error = 4.56973e-18
ExecutionTime = 62.64 s  ClockTime = 63 s

Courant Number mean: -2.06016e-06 max: -2.4643e-13
Time = 1.4e-06

PIMPLE: iteration 1
diagonal:  Solving for rho, Initial residual = 0, Final residual = 0, No Iterations 0
smoothSolver:  Solving for Ux, Initial residual = 0.0396706, Final residual = 6.96987e-14, No Iterations 1
smoothSolver:  Solving for Uy, Initial residual = 0.110849, Final residual = 2.5472e-13, No Iterations 1
smoothSolver:  Solving for h, Initial residual = 0.000360737, Final residual = 1.67921e-05, No Iterations 1000
smoothSolver:  Solving for p_rgh, Initial residual = 0.780338, Final residual = 0.778887, No Iterations 1000
diagonal:  Solving for rho, Initial residual = 0, Final residual = 0, No Iterations 0
time step continuity errors : sum local = -5e-09, global = 5e-09, cumulative = 7e-08
smoothSolver:  Solving for Bx, Initial residual = 0.0711996, Final residual = 1.11091e-08, No Iterations 1
smoothSolver:  Solving for By, Initial residual = 0.0376801, Final residual = 7.59304e-09, No Iterations 1
DICPCG:  Solving for pB, Initial residual = 0.0353702, Final residual = 9.92655e-06, No Iterations 355
magnetic flux divergence error = 4.96188e-18
smoothSolver:  Solving for Bx, Initial residual = 1.03531e-08, Final residual = 1.03531e-08, No Iterations 0
smoothSolver:  Solving for By, Initial residual = 1.25101e-08, Final residual = 1.25101e-08, No Iterations 0
DICPCG:  Solving for pB, Initial residual = 9.58732e-06, Final residual = 9.58732e-06, No Iterations 0
magnetic flux divergence error = 4.96188e-18
smoothSolver:  Solving for Bx, Initial residual = 1.03531e-08, Final residual = 1.03531e-08, No Iterations 0
smoothSolver:  Solving for By, Initial residual = 1.25101e-08, Final residual = 1.25101e-08, No Iterations 0
DICPCG:  Solving for pB, Initial residual = 9.58732e-06, Final residual = 9.58732e-06, No Iterations 0
magnetic flux divergence error = 4.96188e-18
ExecutionTime = 67.28 s  ClockTime = 67 s

Courant Number mean: -2.21854e-06 max: -1.38363e-12
Time = 1.5e-06

PIMPLE: iteration 1
diagonal:  Solving for rho, Initial residual = 0, Final residual = 0, No Iterations 0
smoothSolver:  Solving for Ux, Initial residual = 0.0393179, Final residual = 6.9153e-14, No Iterations 1
smoothSolver:  Solving for Uy, Initial residual = 0.106749, Final residual = 2.45583e-13, No Iterations 1
smoothSolver:  Solving for h, Initial residual = 0.000436133, Final residual = 1.68367e-05, No Iterations 1000
smoothSolver:  Solving for p_rgh, Initial residual = 0.787156, Final residual = 0.785892, No Iterations 1000
diagonal:  Solving for rho, Initial residual = 0, Final residual = 0, No Iterations 0
time step continuity errors : sum local = -5e-09, global = 5e-09, cumulative = 7.5e-08
smoothSolver:  Solving for Bx, Initial residual = 0.0664659, Final residual = 1.03719e-08, No Iterations 1
smoothSolver:  Solving for By, Initial residual = 0.0366107, Final residual = 7.38365e-09, No Iterations 1
DICPCG:  Solving for pB, Initial residual = 0.0328939, Final residual = 9.8826e-06, No Iterations 311
magnetic flux divergence error = 5.28763e-18
smoothSolver:  Solving for Bx, Initial residual = 9.7056e-09, Final residual = 9.7056e-09, No Iterations 0
smoothSolver:  Solving for By, Initial residual = 1.20457e-08, Final residual = 1.20457e-08, No Iterations 0
DICPCG:  Solving for pB, Initial residual = 9.57078e-06, Final residual = 9.57078e-06, No Iterations 0
magnetic flux divergence error = 5.28763e-18
smoothSolver:  Solving for Bx, Initial residual = 9.7056e-09, Final residual = 9.7056e-09, No Iterations 0
smoothSolver:  Solving for By, Initial residual = 1.20457e-08, Final residual = 1.20457e-08, No Iterations 0
DICPCG:  Solving for pB, Initial residual = 9.57078e-06, Final residual = 9.57078e-06, No Iterations 0
magnetic flux divergence error = 5.28763e-18
ExecutionTime = 71.86 s  ClockTime = 72 s

Courant Number mean: -2.3769e-06 max: -6.4835e-12
Time = 1.6e-06

PIMPLE: iteration 1
diagonal:  Solving for rho, Initial residual = 0, Final residual = 0, No Iterations 0
smoothSolver:  Solving for Ux, Initial residual = 0.0392958, Final residual = 6.9176e-14, No Iterations 1
smoothSolver:  Solving for Uy, Initial residual = 0.103082, Final residual = 2.37387e-13, No Iterations 1
smoothSolver:  Solving for h, Initial residual = 0.00052241, Final residual = 1.68053e-05, No Iterations 1000
smoothSolver:  Solving for p_rgh, Initial residual = 0.793357, Final residual = 0.792246, No Iterations 1000
diagonal:  Solving for rho, Initial residual = 0, Final residual = 0, No Iterations 0
time step continuity errors : sum local = -4.99999e-09, global = 4.99999e-09, cumulative = 8e-08
smoothSolver:  Solving for Bx, Initial residual = 0.0623201, Final residual = 9.72607e-09, No Iterations 1
smoothSolver:  Solving for By, Initial residual = 0.0358147, Final residual = 7.22938e-09, No Iterations 1
DICPCG:  Solving for pB, Initial residual = 0.0307511, Final residual = 9.60558e-06, No Iterations 290
magnetic flux divergence error = 5.47417e-18
smoothSolver:  Solving for Bx, Initial residual = 9.13444e-09, Final residual = 9.13444e-09, No Iterations 0
smoothSolver:  Solving for By, Initial residual = 1.16883e-08, Final residual = 1.16883e-08, No Iterations 0
DICPCG:  Solving for pB, Initial residual = 9.32087e-06, Final residual = 9.32087e-06, No Iterations 0
magnetic flux divergence error = 5.47417e-18
smoothSolver:  Solving for Bx, Initial residual = 9.13444e-09, Final residual = 9.13444e-09, No Iterations 0
smoothSolver:  Solving for By, Initial residual = 1.16883e-08, Final residual = 1.16883e-08, No Iterations 0
DICPCG:  Solving for pB, Initial residual = 9.32087e-06, Final residual = 9.32087e-06, No Iterations 0
magnetic flux divergence error = 5.47417e-18
ExecutionTime = 76.41 s  ClockTime = 76 s

Courant Number mean: -2.53525e-06 max: -2.50229e-11
Time = 1.7e-06

PIMPLE: iteration 1
diagonal:  Solving for rho, Initial residual = 0, Final residual = 0, No Iterations 0
smoothSolver:  Solving for Ux, Initial residual = 0.0395945, Final residual = 6.97517e-14, No Iterations 1
smoothSolver:  Solving for Uy, Initial residual = 0.0997742, Final residual = 2.2997e-13, No Iterations 1
smoothSolver:  Solving for h, Initial residual = 0.000620417, Final residual = 1.67325e-05, No Iterations 1000
smoothSolver:  Solving for p_rgh, Initial residual = 0.799034, Final residual = 0.798049, No Iterations 1000
diagonal:  Solving for rho, Initial residual = 0, Final residual = 0, No Iterations 0
time step continuity errors : sum local = -4.99996e-09, global = 4.99996e-09, cumulative = 8.49999e-08
smoothSolver:  Solving for Bx, Initial residual = 0.0586582, Final residual = 9.15561e-09, No Iterations 1
smoothSolver:  Solving for By, Initial residual = 0.0352587, Final residual = 7.12343e-09, No Iterations 1
DICPCG:  Solving for pB, Initial residual = 0.028867, Final residual = 9.69703e-06, No Iterations 304
magnetic flux divergence error = 5.8633e-18
smoothSolver:  Solving for Bx, Initial residual = 8.62669e-09, Final residual = 8.62669e-09, No Iterations 0
smoothSolver:  Solving for By, Initial residual = 1.14211e-08, Final residual = 1.14211e-08, No Iterations 0
DICPCG:  Solving for pB, Initial residual = 9.42602e-06, Final residual = 9.42602e-06, No Iterations 0
magnetic flux divergence error = 5.8633e-18
smoothSolver:  Solving for Bx, Initial residual = 8.62669e-09, Final residual = 8.62669e-09, No Iterations 0
smoothSolver:  Solving for By, Initial residual = 1.14211e-08, Final residual = 1.14211e-08, No Iterations 0
DICPCG:  Solving for pB, Initial residual = 9.42602e-06, Final residual = 9.42602e-06, No Iterations 0
magnetic flux divergence error = 5.8633e-18
ExecutionTime = 81.01 s  ClockTime = 81 s

Courant Number mean: -2.69351e-06 max: -8.1788e-11
Time = 1.8e-06

PIMPLE: iteration 1
diagonal:  Solving for rho, Initial residual = 0, Final residual = 0, No Iterations 0
smoothSolver:  Solving for Ux, Initial residual = 0.040214, Final residual = 7.08737e-14, No Iterations 1
smoothSolver:  Solving for Uy, Initial residual = 0.0967393, Final residual = 2.23143e-13, No Iterations 1
smoothSolver:  Solving for h, Initial residual = 0.000731625, Final residual = 1.67823e-05, No Iterations 1000
smoothSolver:  Solving for p_rgh, Initial residual = 0.804259, Final residual = 0.803379, No Iterations 1000
diagonal:  Solving for rho, Initial residual = 0, Final residual = 0, No Iterations 0
time step continuity errors : sum local = -4.99988e-09, global = 4.99988e-09, cumulative = 8.99998e-08
smoothSolver:  Solving for Bx, Initial residual = 0.0553979, Final residual = 8.64769e-09, No Iterations 1
smoothSolver:  Solving for By, Initial residual = 0.0349195, Final residual = 7.06279e-09, No Iterations 1
DICPCG:  Solving for pB, Initial residual = 0.0271983, Final residual = 9.8398e-06, No Iterations 312
magnetic flux divergence error = 6.2906e-18
smoothSolver:  Solving for Bx, Initial residual = 8.17202e-09, Final residual = 8.17202e-09, No Iterations 0
smoothSolver:  Solving for By, Initial residual = 1.12342e-08, Final residual = 1.12342e-08, No Iterations 0
DICPCG:  Solving for pB, Initial residual = 9.5803e-06, Final residual = 9.5803e-06, No Iterations 0
magnetic flux divergence error = 6.2906e-18
smoothSolver:  Solving for Bx, Initial residual = 8.17202e-09, Final residual = 8.17202e-09, No Iterations 0
smoothSolver:  Solving for By, Initial residual = 1.12342e-08, Final residual = 1.12342e-08, No Iterations 0
DICPCG:  Solving for pB, Initial residual = 9.5803e-06, Final residual = 9.5803e-06, No Iterations 0
magnetic flux divergence error = 6.2906e-18
ExecutionTime = 85.6 s  ClockTime = 86 s

Courant Number mean: -2.85157e-06 max: -2.31643e-10
Time = 1.9e-06

PIMPLE: iteration 1
diagonal:  Solving for rho, Initial residual = 0, Final residual = 0, No Iterations 0
smoothSolver:  Solving for Ux, Initial residual = 0.0411559, Final residual = 7.25247e-14, No Iterations 1
smoothSolver:  Solving for Uy, Initial residual = 0.0939177, Final residual = 2.16778e-13, No Iterations 1
smoothSolver:  Solving for h, Initial residual = 0.000855054, Final residual = 1.68623e-05, No Iterations 1000
smoothSolver:  Solving for p_rgh, Initial residual = 0.809097, Final residual = 0.808294, No Iterations 1000
diagonal:  Solving for rho, Initial residual = 0, Final residual = 0, No Iterations 0
time step continuity errors : sum local = -4.99966e-09, global = 4.99966e-09, cumulative = 9.49995e-08
smoothSolver:  Solving for Bx, Initial residual = 0.0524725, Final residual = 8.19189e-09, No Iterations 1
smoothSolver:  Solving for By, Initial residual = 0.0347825, Final residual = 7.04594e-09, No Iterations 1
DICPCG:  Solving for pB, Initial residual = 0.0257113, Final residual = 9.84723e-06, No Iterations 308
magnetic flux divergence error = 6.63527e-18
smoothSolver:  Solving for Bx, Initial residual = 7.76189e-09, Final residual = 7.76189e-09, No Iterations 0
smoothSolver:  Solving for By, Initial residual = 1.11251e-08, Final residual = 1.11251e-08, No Iterations 0
DICPCG:  Solving for pB, Initial residual = 9.60153e-06, Final residual = 9.60153e-06, No Iterations 0
magnetic flux divergence error = 6.63527e-18
smoothSolver:  Solving for Bx, Initial residual = 7.76189e-09, Final residual = 7.76189e-09, No Iterations 0
smoothSolver:  Solving for By, Initial residual = 1.11251e-08, Final residual = 1.11251e-08, No Iterations 0
DICPCG:  Solving for pB, Initial residual = 9.60153e-06, Final residual = 9.60153e-06, No Iterations 0
magnetic flux divergence error = 6.63527e-18
ExecutionTime = 90.17 s  ClockTime = 90 s

Courant Number mean: -3.00913e-06 max: -5.79244e-10
Time = 2e-06

PIMPLE: iteration 1
diagonal:  Solving for rho, Initial residual = 0, Final residual = 0, No Iterations 0
smoothSolver:  Solving for Ux, Initial residual = 0.0424132, Final residual = 7.46477e-14, No Iterations 1
smoothSolver:  Solving for Uy, Initial residual = 0.0912985, Final residual = 2.10848e-13, No Iterations 1
smoothSolver:  Solving for h, Initial residual = 0.000991886, Final residual = 1.67145e-05, No Iterations 1000
smoothSolver:  Solving for p_rgh, Initial residual = 0.813588, Final residual = 0.812843, No Iterations 1000
diagonal:  Solving for rho, Initial residual = 0, Final residual = 0, No Iterations 0
time step continuity errors : sum local = -4.99918e-09, global = 4.99918e-09, cumulative = 9.99987e-08
smoothSolver:  Solving for Bx, Initial residual = 0.0498255, Final residual = 7.77947e-09, No Iterations 1
smoothSolver:  Solving for By, Initial residual = 0.0348397, Final residual = 7.06842e-09, No Iterations 1
DICPCG:  Solving for pB, Initial residual = 0.0243777, Final residual = 9.94233e-06, No Iterations 223
magnetic flux divergence error = 7.04123e-18
smoothSolver:  Solving for Bx, Initial residual = 7.38907e-09, Final residual = 7.38907e-09, No Iterations 0
smoothSolver:  Solving for By, Initial residual = 1.10848e-08, Final residual = 1.10848e-08, No Iterations 0
DICPCG:  Solving for pB, Initial residual = 9.70283e-06, Final residual = 9.70283e-06, No Iterations 0
magnetic flux divergence error = 7.04123e-18
smoothSolver:  Solving for Bx, Initial residual = 7.38907e-09, Final residual = 7.38907e-09, No Iterations 0
smoothSolver:  Solving for By, Initial residual = 1.10848e-08, Final residual = 1.10848e-08, No Iterations 0
DICPCG:  Solving for pB, Initial residual = 9.70283e-06, Final residual = 9.70283e-06, No Iterations 0
magnetic flux divergence error = 7.04123e-18
ExecutionTime = 94.64 s  ClockTime = 95 s

Courant Number mean: -3.16568e-06 max: -1.29895e-09
Time = 2.1e-06

PIMPLE: iteration 1
diagonal:  Solving for rho, Initial residual = 0, Final residual = 0, No Iterations 0
smoothSolver:  Solving for Ux, Initial residual = 0.0439556, Final residual = 7.71117e-14, No Iterations 1
smoothSolver:  Solving for Uy, Initial residual = 0.0888588, Final residual = 2.05294e-13, No Iterations 1
smoothSolver:  Solving for h, Initial residual = 0.00114316, Final residual = 1.6685e-05, No Iterations 1000
smoothSolver:  Solving for p_rgh, Initial residual = 0.817758, Final residual = 0.817063, No Iterations 1000
diagonal:  Solving for rho, Initial residual = 0, Final residual = 0, No Iterations 0
time step continuity errors : sum local = -4.99822e-09, global = 4.99822e-09, cumulative = 1.04997e-07
smoothSolver:  Solving for Bx, Initial residual = 0.0474084, Final residual = 7.40282e-09, No Iterations 1
smoothSolver:  Solving for By, Initial residual = 0.035089, Final residual = 7.12992e-09, No Iterations 1
DICPCG:  Solving for pB, Initial residual = 0.0231651, Final residual = 9.46998e-06, No Iterations 260
magnetic flux divergence error = 7.03397e-18
smoothSolver:  Solving for Bx, Initial residual = 7.04709e-09, Final residual = 7.04709e-09, No Iterations 0
smoothSolver:  Solving for By, Initial residual = 1.11112e-08, Final residual = 1.11112e-08, No Iterations 0
DICPCG:  Solving for pB, Initial residual = 9.25743e-06, Final residual = 9.25743e-06, No Iterations 0
magnetic flux divergence error = 7.03397e-18
smoothSolver:  Solving for Bx, Initial residual = 7.04709e-09, Final residual = 7.04709e-09, No Iterations 0
smoothSolver:  Solving for By, Initial residual = 1.11112e-08, Final residual = 1.11112e-08, No Iterations 0
DICPCG:  Solving for pB, Initial residual = 9.25743e-06, Final residual = 9.25743e-06, No Iterations 0
magnetic flux divergence error = 7.03397e-18
ExecutionTime = 99.17 s  ClockTime = 99 s

Courant Number mean: -3.32033e-06 max: -2.64684e-09
Time = 2.2e-06

PIMPLE: iteration 1
diagonal:  Solving for rho, Initial residual = 0, Final residual = 0, No Iterations 0
smoothSolver:  Solving for Ux, Initial residual = 0.0457098, Final residual = 7.96635e-14, No Iterations 1
smoothSolver:  Solving for Uy, Initial residual = 0.0865703, Final residual = 2.00029e-13, No Iterations 1
smoothSolver:  Solving for h, Initial residual = 0.00130966, Final residual = 1.66819e-05, No Iterations 1000
smoothSolver:  Solving for p_rgh, Initial residual = 0.821637, Final residual = 0.820986, No Iterations 1000
diagonal:  Solving for rho, Initial residual = 0, Final residual = 0, No Iterations 0
time step continuity errors : sum local = -4.99648e-09, global = 4.99648e-09, cumulative = 1.09993e-07
smoothSolver:  Solving for Bx, Initial residual = 0.0451778, Final residual = 7.05522e-09, No Iterations 1
smoothSolver:  Solving for By, Initial residual = 0.0355336, Final residual = 7.23797e-09, No Iterations 1
DICPCG:  Solving for pB, Initial residual = 0.0220752, Final residual = 9.89084e-06, No Iterations 342
magnetic flux divergence error = 7.6836e-18
smoothSolver:  Solving for Bx, Initial residual = 6.73032e-09, Final residual = 6.73032e-09, No Iterations 0
smoothSolver:  Solving for By, Initial residual = 1.12092e-08, Final residual = 1.12092e-08, No Iterations 0
DICPCG:  Solving for pB, Initial residual = 9.68352e-06, Final residual = 9.68352e-06, No Iterations 0
magnetic flux divergence error = 7.6836e-18
smoothSolver:  Solving for Bx, Initial residual = 6.73032e-09, Final residual = 6.73032e-09, No Iterations 0
smoothSolver:  Solving for By, Initial residual = 1.12092e-08, Final residual = 1.12092e-08, No Iterations 0
DICPCG:  Solving for pB, Initial residual = 9.68352e-06, Final residual = 9.68352e-06, No Iterations 0
magnetic flux divergence error = 7.6836e-18
ExecutionTime = 103.8 s  ClockTime = 104 s

Courant Number mean: -3.47174e-06 max: -4.95603e-09
Time = 2.3e-06

PIMPLE: iteration 1
diagonal:  Solving for rho, Initial residual = 0, Final residual = 0, No Iterations 0
smoothSolver:  Solving for Ux, Initial residual = 0.0475373, Final residual = 8.19018e-14, No Iterations 1
smoothSolver:  Solving for Uy, Initial residual = 0.0843917, Final residual = 1.94916e-13, No Iterations 1
smoothSolver:  Solving for h, Initial residual = 0.001491, Final residual = 1.67565e-05, No Iterations 1000
smoothSolver:  Solving for p_rgh, Initial residual = 0.82527, Final residual = 0.824659, No Iterations 1000
diagonal:  Solving for rho, Initial residual = 0, Final residual = 0, No Iterations 0
time step continuity errors : sum local = -4.99359e-09, global = 4.99359e-09, cumulative = 1.14987e-07
smoothSolver:  Solving for Bx, Initial residual = 0.0430952, Final residual = 6.73066e-09, No Iterations 1
smoothSolver:  Solving for By, Initial residual = 0.0361824, Final residual = 7.38749e-09, No Iterations 1
DICPCG:  Solving for pB, Initial residual = 0.0210901, Final residual = 9.88976e-06, No Iterations 240
magnetic flux divergence error = 8.01496e-18
smoothSolver:  Solving for Bx, Initial residual = 6.43349e-09, Final residual = 6.43349e-09, No Iterations 0
smoothSolver:  Solving for By, Initial residual = 1.13815e-08, Final residual = 1.13815e-08, No Iterations 0
DICPCG:  Solving for pB, Initial residual = 9.6838e-06, Final residual = 9.6838e-06, No Iterations 0
magnetic flux divergence error = 8.01496e-18
smoothSolver:  Solving for Bx, Initial residual = 6.43349e-09, Final residual = 6.43349e-09, No Iterations 0
smoothSolver:  Solving for By, Initial residual = 1.13815e-08, Final residual = 1.13815e-08, No Iterations 0
DICPCG:  Solving for pB, Initial residual = 9.6838e-06, Final residual = 9.6838e-06, No Iterations 0
magnetic flux divergence error = 8.01496e-18
ExecutionTime = 108.29 s  ClockTime = 108 s

Courant Number mean: -3.61811e-06 max: -8.60985e-09
Time = 2.4e-06

PIMPLE: iteration 1
diagonal:  Solving for rho, Initial residual = 0, Final residual = 0, No Iterations 0
smoothSolver:  Solving for Ux, Initial residual = 0.0492029, Final residual = 8.3283e-14, No Iterations 1
smoothSolver:  Solving for Uy, Initial residual = 0.0822224, Final residual = 1.89646e-13, No Iterations 1
smoothSolver:  Solving for h, Initial residual = 0.00168883, Final residual = 1.65763e-05, No Iterations 1000
smoothSolver:  Solving for p_rgh, Initial residual = 0.828796, Final residual = 0.82822, No Iterations 1000
diagonal:  Solving for rho, Initial residual = 0, Final residual = 0, No Iterations 0
time step continuity errors : sum local = -4.98916e-09, global = 4.98916e-09, cumulative = 1.19976e-07
smoothSolver:  Solving for Bx, Initial residual = 0.0411267, Final residual = 6.42385e-09, No Iterations 1
smoothSolver:  Solving for By, Initial residual = 0.0370503, Final residual = 7.58168e-09, No Iterations 1
DICPCG:  Solving for pB, Initial residual = 0.0201689, Final residual = 9.69648e-06, No Iterations 267
magnetic flux divergence error = 8.18925e-18
smoothSolver:  Solving for Bx, Initial residual = 6.15194e-09, Final residual = 6.15194e-09, No Iterations 0
smoothSolver:  Solving for By, Initial residual = 1.16322e-08, Final residual = 1.16322e-08, No Iterations 0
DICPCG:  Solving for pB, Initial residual = 9.5055e-06, Final residual = 9.5055e-06, No Iterations 0
magnetic flux divergence error = 8.18925e-18
smoothSolver:  Solving for Bx, Initial residual = 6.15194e-09, Final residual = 6.15194e-09, No Iterations 0
smoothSolver:  Solving for By, Initial residual = 1.16322e-08, Final residual = 1.16322e-08, No Iterations 0
DICPCG:  Solving for pB, Initial residual = 9.5055e-06, Final residual = 9.5055e-06, No Iterations 0
magnetic flux divergence error = 8.18925e-18
ExecutionTime = 112.82 s  ClockTime = 113 s

Courant Number mean: -3.7571e-06 max: -1.39938e-08
Time = 2.5e-06

PIMPLE: iteration 1
diagonal:  Solving for rho, Initial residual = 0, Final residual = 0, No Iterations 0
smoothSolver:  Solving for Ux, Initial residual = 0.0503759, Final residual = 8.32617e-14, No Iterations 1
smoothSolver:  Solving for Uy, Initial residual = 0.079788, Final residual = 1.83581e-13, No Iterations 1
smoothSolver:  Solving for h, Initial residual = 0.00190319, Final residual = 1.65728e-05, No Iterations 1000
smoothSolver:  Solving for p_rgh, Initial residual = 0.832616, Final residual = 0.832072, No Iterations 1000
diagonal:  Solving for rho, Initial residual = 0, Final residual = 0, No Iterations 0
time step continuity errors : sum local = -4.98281e-09, global = 4.98281e-09, cumulative = 1.24959e-07
smoothSolver:  Solving for Bx, Initial residual = 0.0392436, Final residual = 6.13033e-09, No Iterations 1
smoothSolver:  Solving for By, Initial residual = 0.0381585, Final residual = 7.82276e-09, No Iterations 1
DICPCG:  Solving for pB, Initial residual = 0.0193246, Final residual = 9.91902e-06, No Iterations 313
magnetic flux divergence error = 8.71247e-18
smoothSolver:  Solving for Bx, Initial residual = 5.88171e-09, Final residual = 5.88171e-09, No Iterations 0
smoothSolver:  Solving for By, Initial residual = 1.1974e-08, Final residual = 1.1974e-08, No Iterations 0
DICPCG:  Solving for pB, Initial residual = 9.73344e-06, Final residual = 9.73344e-06, No Iterations 0
magnetic flux divergence error = 8.71247e-18
smoothSolver:  Solving for Bx, Initial residual = 5.88171e-09, Final residual = 5.88171e-09, No Iterations 0
smoothSolver:  Solving for By, Initial residual = 1.1974e-08, Final residual = 1.1974e-08, No Iterations 0
DICPCG:  Solving for pB, Initial residual = 9.73344e-06, Final residual = 9.73344e-06, No Iterations 0
magnetic flux divergence error = 8.71247e-18
ExecutionTime = 117.4 s  ClockTime = 117 s

Courant Number mean: -3.88604e-06 max: -2.14347e-08
Time = 2.6e-06

PIMPLE: iteration 1
diagonal:  Solving for rho, Initial residual = 0, Final residual = 0, No Iterations 0
smoothSolver:  Solving for Ux, Initial residual = 0.0506008, Final residual = 8.14211e-14, No Iterations 1
smoothSolver:  Solving for Uy, Initial residual = 0.0765091, Final residual = 1.75633e-13, No Iterations 1
smoothSolver:  Solving for h, Initial residual = 0.00214541, Final residual = 1.66513e-05, No Iterations 1000
smoothSolver:  Solving for p_rgh, Initial residual = 0.837603, Final residual = 0.837086, No Iterations 1000
diagonal:  Solving for rho, Initial residual = 0, Final residual = 0, No Iterations 0
time step continuity errors : sum local = -4.97425e-09, global = 4.97425e-09, cumulative = 1.29933e-07
smoothSolver:  Solving for Bx, Initial residual = 0.0374227, Final residual = 5.84649e-09, No Iterations 1
smoothSolver:  Solving for By, Initial residual = 0.0395355, Final residual = 8.11867e-09, No Iterations 1
DICPCG:  Solving for pB, Initial residual = 0.0185464, Final residual = 9.86155e-06, No Iterations 304
magnetic flux divergence error = 8.99253e-18
smoothSolver:  Solving for Bx, Initial residual = 5.61965e-09, Final residual = 5.61965e-09, No Iterations 0
smoothSolver:  Solving for By, Initial residual = 1.24158e-08, Final residual = 1.24158e-08, No Iterations 0
DICPCG:  Solving for pB, Initial residual = 9.68341e-06, Final residual = 9.68341e-06, No Iterations 0
magnetic flux divergence error = 8.99253e-18
smoothSolver:  Solving for Bx, Initial residual = 5.61965e-09, Final residual = 5.61965e-09, No Iterations 0
smoothSolver:  Solving for By, Initial residual = 1.24158e-08, Final residual = 1.24158e-08, No Iterations 0
DICPCG:  Solving for pB, Initial residual = 9.68341e-06, Final residual = 9.68341e-06, No Iterations 0
magnetic flux divergence error = 8.99253e-18
ExecutionTime = 121.98 s  ClockTime = 122 s

Courant Number mean: -4.00206e-06 max: -3.11402e-08
Time = 2.7e-06

PIMPLE: iteration 1
diagonal:  Solving for rho, Initial residual = 0, Final residual = 0, No Iterations 0
smoothSolver:  Solving for Ux, Initial residual = 0.0493297, Final residual = 7.75777e-14, No Iterations 1
smoothSolver:  Solving for Uy, Initial residual = 0.0715663, Final residual = 1.64443e-13, No Iterations 1
smoothSolver:  Solving for h, Initial residual = 0.00240796, Final residual = 1.68029e-05, No Iterations 1000
smoothSolver:  Solving for p_rgh, Initial residual = 0.845042, Final residual = 0.844549, No Iterations 1000
diagonal:  Solving for rho, Initial residual = 0, Final residual = 0, No Iterations 0
time step continuity errors : sum local = -4.96334e-09, global = 4.96334e-09, cumulative = 1.34897e-07
smoothSolver:  Solving for Bx, Initial residual = 0.0356472, Final residual = 5.56972e-09, No Iterations 1
smoothSolver:  Solving for By, Initial residual = 0.0412161, Final residual = 8.47685e-09, No Iterations 1
DICPCG:  Solving for pB, Initial residual = 0.0178206, Final residual = 9.71896e-06, No Iterations 303
magnetic flux divergence error = 9.18789e-18
smoothSolver:  Solving for Bx, Initial residual = 5.36336e-09, Final residual = 5.36336e-09, No Iterations 0
smoothSolver:  Solving for By, Initial residual = 1.29659e-08, Final residual = 1.29659e-08, No Iterations 0
DICPCG:  Solving for pB, Initial residual = 9.5501e-06, Final residual = 9.5501e-06, No Iterations 0
magnetic flux divergence error = 9.18789e-18
smoothSolver:  Solving for Bx, Initial residual = 5.36336e-09, Final residual = 5.36336e-09, No Iterations 0
smoothSolver:  Solving for By, Initial residual = 1.29659e-08, Final residual = 1.29659e-08, No Iterations 0
DICPCG:  Solving for pB, Initial residual = 9.5501e-06, Final residual = 9.5501e-06, No Iterations 0
magnetic flux divergence error = 9.18789e-18
ExecutionTime = 126.55 s  ClockTime = 127 s

Courant Number mean: -4.10235e-06 max: -4.31531e-08
Time = 2.8e-06

PIMPLE: iteration 1
diagonal:  Solving for rho, Initial residual = 0, Final residual = 0, No Iterations 0
smoothSolver:  Solving for Ux, Initial residual = 0.0460077, Final residual = 7.15858e-14, No Iterations 1
smoothSolver:  Solving for Uy, Initial residual = 0.0642375, Final residual = 1.48682e-13, No Iterations 1
smoothSolver:  Solving for h, Initial residual = 0.00269498, Final residual = 1.68424e-05, No Iterations 1000
smoothSolver:  Solving for p_rgh, Initial residual = 0.856187, Final residual = 0.855714, No Iterations 1000
diagonal:  Solving for rho, Initial residual = 0, Final residual = 0, No Iterations 0
time step continuity errors : sum local = -4.95015e-09, global = 4.95015e-09, cumulative = 1.39847e-07
smoothSolver:  Solving for Bx, Initial residual = 0.0339063, Final residual = 5.29832e-09, No Iterations 1
smoothSolver:  Solving for By, Initial residual = 0.0432351, Final residual = 8.90499e-09, No Iterations 1
DICPCG:  Solving for pB, Initial residual = 0.0171433, Final residual = 9.81853e-06, No Iterations 302
magnetic flux divergence error = 9.60934e-18
smoothSolver:  Solving for Bx, Initial residual = 5.11113e-09, Final residual = 5.11113e-09, No Iterations 0
smoothSolver:  Solving for By, Initial residual = 1.36284e-08, Final residual = 1.36284e-08, No Iterations 0
DICPCG:  Solving for pB, Initial residual = 9.65439e-06, Final residual = 9.65439e-06, No Iterations 0
magnetic flux divergence error = 9.60934e-18
smoothSolver:  Solving for Bx, Initial residual = 5.11113e-09, Final residual = 5.11113e-09, No Iterations 0
smoothSolver:  Solving for By, Initial residual = 1.36284e-08, Final residual = 1.36284e-08, No Iterations 0
DICPCG:  Solving for pB, Initial residual = 9.65439e-06, Final residual = 9.65439e-06, No Iterations 0
magnetic flux divergence error = 9.60934e-18
ExecutionTime = 131.14 s  ClockTime = 131 s

Courant Number mean: -4.18436e-06 max: -5.733e-08
Time = 2.9e-06

PIMPLE: iteration 1
diagonal:  Solving for rho, Initial residual = 0, Final residual = 0, No Iterations 0
smoothSolver:  Solving for Ux, Initial residual = 0.0402308, Final residual = 6.29277e-14, No Iterations 1
smoothSolver:  Solving for Uy, Initial residual = 0.0542219, Final residual = 1.2728e-13, No Iterations 1
smoothSolver:  Solving for h, Initial residual = 0.00299966, Final residual = 1.68216e-05, No Iterations 1000
smoothSolver:  Solving for p_rgh, Initial residual = 0.871825, Final residual = 0.871368, No Iterations 1000
diagonal:  Solving for rho, Initial residual = 0, Final residual = 0, No Iterations 0
time step continuity errors : sum local = -4.9349e-09, global = 4.9349e-09, cumulative = 1.44782e-07
smoothSolver:  Solving for Bx, Initial residual = 0.0321945, Final residual = 5.03145e-09, No Iterations 1
smoothSolver:  Solving for By, Initial residual = 0.0456091, Final residual = 9.40571e-09, No Iterations 1
DICPCG:  Solving for pB, Initial residual = 0.0165101, Final residual = 9.83472e-06, No Iterations 265
magnetic flux divergence error = 9.95165e-18
smoothSolver:  Solving for Bx, Initial residual = 4.86214e-09, Final residual = 4.86214e-09, No Iterations 0
smoothSolver:  Solving for By, Initial residual = 1.4416e-08, Final residual = 1.4416e-08, No Iterations 0
DICPCG:  Solving for pB, Initial residual = 9.67564e-06, Final residual = 9.67564e-06, No Iterations 0
magnetic flux divergence error = 9.95165e-18
smoothSolver:  Solving for Bx, Initial residual = 4.86214e-09, Final residual = 4.86214e-09, No Iterations 0
smoothSolver:  Solving for By, Initial residual = 1.4416e-08, Final residual = 1.4416e-08, No Iterations 0
DICPCG:  Solving for pB, Initial residual = 9.67564e-06, Final residual = 9.67564e-06, No Iterations 0
magnetic flux divergence error = 9.95165e-18
ExecutionTime = 135.71 s  ClockTime = 136 s

Courant Number mean: -4.24608e-06 max: -7.33494e-08
Time = 3e-06

PIMPLE: iteration 1
diagonal:  Solving for rho, Initial residual = 0, Final residual = 0, No Iterations 0
smoothSolver:  Solving for Ux, Initial residual = 0.0319313, Final residual = 5.07059e-14, No Iterations 1
smoothSolver:  Solving for Uy, Initial residual = 0.0417389, Final residual = 9.98378e-14, No Iterations 1
smoothSolver:  Solving for h, Initial residual = 0.00332416, Final residual = 1.68873e-05, No Iterations 1000
smoothSolver:  Solving for p_rgh, Initial residual = 0.892089, Final residual = 0.891646, No Iterations 1000
diagonal:  Solving for rho, Initial residual = 0, Final residual = 0, No Iterations 0
time step continuity errors : sum local = -4.918e-09, global = 4.918e-09, cumulative = 1.497e-07
smoothSolver:  Solving for Bx, Initial residual = 0.0305115, Final residual = 4.76903e-09, No Iterations 1
smoothSolver:  Solving for By, Initial residual = 0.048387, Final residual = 9.98772e-09, No Iterations 1
DICPCG:  Solving for pB, Initial residual = 0.0159156, Final residual = 9.61473e-06, No Iterations 302
magnetic flux divergence error = 1.00476e-17
smoothSolver:  Solving for Bx, Initial residual = 4.61629e-09, Final residual = 4.61629e-09, No Iterations 0
smoothSolver:  Solving for By, Initial residual = 1.53246e-08, Final residual = 1.53246e-08, No Iterations 0
DICPCG:  Solving for pB, Initial residual = 9.46579e-06, Final residual = 9.46579e-06, No Iterations 0
magnetic flux divergence error = 1.00476e-17
smoothSolver:  Solving for Bx, Initial residual = 4.61629e-09, Final residual = 4.61629e-09, No Iterations 0
smoothSolver:  Solving for By, Initial residual = 1.53246e-08, Final residual = 1.53246e-08, No Iterations 0
DICPCG:  Solving for pB, Initial residual = 9.46579e-06, Final residual = 9.46579e-06, No Iterations 0
magnetic flux divergence error = 1.00476e-17
ExecutionTime = 140.26 s  ClockTime = 140 s

Courant Number mean: -4.28616e-06 max: -9.07475e-08
Time = 3.1e-06

PIMPLE: iteration 1
diagonal:  Solving for rho, Initial residual = 0, Final residual = 0, No Iterations 0
smoothSolver:  Solving for Ux, Initial residual = 0.0214969, Final residual = 3.44891e-14, No Iterations 1
smoothSolver:  Solving for Uy, Initial residual = 0.0274889, Final residual = 6.72567e-14, No Iterations 1
smoothSolver:  Solving for h, Initial residual = 0.00366844, Final residual = 1.70256e-05, No Iterations 1000
smoothSolver:  Solving for p_rgh, Initial residual = 0.916432, Final residual = 0.916005, No Iterations 1000
diagonal:  Solving for rho, Initial residual = 0, Final residual = 0, No Iterations 0
time step continuity errors : sum local = -4.89998e-09, global = 4.89998e-09, cumulative = 1.546e-07
smoothSolver:  Solving for Bx, Initial residual = 0.0288601, Final residual = 4.51155e-09, No Iterations 1
smoothSolver:  Solving for By, Initial residual = 0.051445, Final residual = 1.06253e-08, No Iterations 1
DICPCG:  Solving for pB, Initial residual = 0.0153606, Final residual = 9.93428e-06, No Iterations 258
magnetic flux divergence error = 1.07078e-17
smoothSolver:  Solving for Bx, Initial residual = 4.37404e-09, Final residual = 4.37404e-09, No Iterations 0
smoothSolver:  Solving for By, Initial residual = 1.63595e-08, Final residual = 1.63595e-08, No Iterations 0
DICPCG:  Solving for pB, Initial residual = 9.78465e-06, Final residual = 9.78465e-06, No Iterations 0
magnetic flux divergence error = 1.07078e-17
smoothSolver:  Solving for Bx, Initial residual = 4.37404e-09, Final residual = 4.37404e-09, No Iterations 0
smoothSolver:  Solving for By, Initial residual = 1.63595e-08, Final residual = 1.63595e-08, No Iterations 0
DICPCG:  Solving for pB, Initial residual = 9.78465e-06, Final residual = 9.78465e-06, No Iterations 0
magnetic flux divergence error = 1.07078e-17
ExecutionTime = 144.8 s  ClockTime = 145 s

Courant Number mean: -4.304e-06 max: -1.08967e-07
Time = 3.2e-06

PIMPLE: iteration 1
diagonal:  Solving for rho, Initial residual = 0, Final residual = 0, No Iterations 0
smoothSolver:  Solving for Ux, Initial residual = 0.00976963, Final residual = 1.53034e-14, No Iterations 1
smoothSolver:  Solving for Uy, Initial residual = 0.0130917, Final residual = 3.31072e-14, No Iterations 1
smoothSolver:  Solving for h, Initial residual = 0.00403304, Final residual = 1.69002e-05, No Iterations 1000
smoothSolver:  Solving for p_rgh, Initial residual = 0.943416, Final residual = 0.943001, No Iterations 1000
diagonal:  Solving for rho, Initial residual = 0, Final residual = 0, No Iterations 0
time step continuity errors : sum local = -4.88143e-09, global = 4.88143e-09, cumulative = 1.59481e-07
smoothSolver:  Solving for Bx, Initial residual = 0.0272457, Final residual = 4.25981e-09, No Iterations 1
smoothSolver:  Solving for By, Initial residual = 0.0532946, Final residual = 1.10073e-08, No Iterations 1
DICPCG:  Solving for pB, Initial residual = 0.0148398, Final residual = 9.87719e-06, No Iterations 300
magnetic flux divergence error = 1.09706e-17
smoothSolver:  Solving for Bx, Initial residual = 4.13622e-09, Final residual = 4.13622e-09, No Iterations 0
smoothSolver:  Solving for By, Initial residual = 1.65328e-08, Final residual = 1.65328e-08, No Iterations 0
DICPCG:  Solving for pB, Initial residual = 9.7344e-06, Final residual = 9.7344e-06, No Iterations 0
magnetic flux divergence error = 1.09706e-17
smoothSolver:  Solving for Bx, Initial residual = 4.13622e-09, Final residual = 4.13622e-09, No Iterations 0
smoothSolver:  Solving for By, Initial residual = 1.65328e-08, Final residual = 1.65328e-08, No Iterations 0
DICPCG:  Solving for pB, Initial residual = 9.7344e-06, Final residual = 9.7344e-06, No Iterations 0
magnetic flux divergence error = 1.09706e-17
ExecutionTime = 149.37 s  ClockTime = 149 s

Courant Number mean: -4.29976e-06 max: -1.27424e-07
Time = 3.3e-06

PIMPLE: iteration 1
diagonal:  Solving for rho, Initial residual = 0, Final residual = 0, No Iterations 0
smoothSolver:  Solving for Ux, Initial residual = 0.00342957, Final residual = 7.88425e-15, No Iterations 1
smoothSolver:  Solving for Uy, Initial residual = 0.00742068, Final residual = 1.92691e-14, No Iterations 1
smoothSolver:  Solving for h, Initial residual = 0.00441647, Final residual = 1.69705e-05, No Iterations 1000
smoothSolver:  Solving for p_rgh, Initial residual = 0.955259, Final residual = 0.954861, No Iterations 1000
diagonal:  Solving for rho, Initial residual = 0, Final residual = 0, No Iterations 0
time step continuity errors : sum local = -4.86293e-09, global = 4.86293e-09, cumulative = 1.64344e-07
smoothSolver:  Solving for Bx, Initial residual = 0.0256747, Final residual = 4.01482e-09, No Iterations 1
smoothSolver:  Solving for By, Initial residual = 0.0524157, Final residual = 1.08216e-08, No Iterations 1
DICPCG:  Solving for pB, Initial residual = 0.0143537, Final residual = 9.99651e-06, No Iterations 257
magnetic flux divergence error = 1.14288e-17
smoothSolver:  Solving for Bx, Initial residual = 3.90384e-09, Final residual = 3.90384e-09, No Iterations 0
smoothSolver:  Solving for By, Initial residual = 1.45936e-08, Final residual = 1.45936e-08, No Iterations 0
DICPCG:  Solving for pB, Initial residual = 9.85553e-06, Final residual = 9.85553e-06, No Iterations 0
magnetic flux divergence error = 1.14288e-17
smoothSolver:  Solving for Bx, Initial residual = 3.90384e-09, Final residual = 3.90384e-09, No Iterations 0
smoothSolver:  Solving for By, Initial residual = 1.45936e-08, Final residual = 1.45936e-08, No Iterations 0
DICPCG:  Solving for pB, Initial residual = 9.85553e-06, Final residual = 9.85553e-06, No Iterations 0
magnetic flux divergence error = 1.14288e-17
ExecutionTime = 153.86 s  ClockTime = 154 s

Courant Number mean: -4.27426e-06 max: -1.45556e-07
Time = 3.4e-06

PIMPLE: iteration 1
diagonal:  Solving for rho, Initial residual = 0, Final residual = 0, No Iterations 0
smoothSolver:  Solving for Ux, Initial residual = 0.0138108, Final residual = 2.39929e-14, No Iterations 1
smoothSolver:  Solving for Uy, Initial residual = 0.0194904, Final residual = 4.71791e-14, No Iterations 1
smoothSolver:  Solving for h, Initial residual = 0.0048162, Final residual = 1.69359e-05, No Iterations 1000
smoothSolver:  Solving for p_rgh, Initial residual = 0.932308, Final residual = 0.931938, No Iterations 1000
diagonal:  Solving for rho, Initial residual = 0, Final residual = 0, No Iterations 0
time step continuity errors : sum local = -4.84503e-09, global = 4.84503e-09, cumulative = 1.69189e-07
smoothSolver:  Solving for Bx, Initial residual = 0.0241534, Final residual = 3.77759e-09, No Iterations 1
smoothSolver:  Solving for By, Initial residual = 0.0469405, Final residual = 9.68544e-09, No Iterations 1
DICPCG:  Solving for pB, Initial residual = 0.0138951, Final residual = 9.55559e-06, No Iterations 265
magnetic flux divergence error = 1.1236e-17
smoothSolver:  Solving for Bx, Initial residual = 3.67806e-09, Final residual = 3.67806e-09, No Iterations 0
smoothSolver:  Solving for By, Initial residual = 1.30337e-08, Final residual = 1.30337e-08, No Iterations 0
DICPCG:  Solving for pB, Initial residual = 9.42535e-06, Final residual = 9.42535e-06, No Iterations 0
magnetic flux divergence error = 1.1236e-17
smoothSolver:  Solving for Bx, Initial residual = 3.67806e-09, Final residual = 3.67806e-09, No Iterations 0
smoothSolver:  Solving for By, Initial residual = 1.30337e-08, Final residual = 1.30337e-08, No Iterations 0
DICPCG:  Solving for pB, Initial residual = 9.42535e-06, Final residual = 9.42535e-06, No Iterations 0
magnetic flux divergence error = 1.1236e-17
ExecutionTime = 158.37 s  ClockTime = 158 s

Courant Number mean: -4.22888e-06 max: -1.62876e-07
Time = 3.5e-06

PIMPLE: iteration 1
diagonal:  Solving for rho, Initial residual = 0, Final residual = 0, No Iterations 0
smoothSolver:  Solving for Ux, Initial residual = 0.0234178, Final residual = 3.8432e-14, No Iterations 1
smoothSolver:  Solving for Uy, Initial residual = 0.0318665, Final residual = 7.51445e-14, No Iterations 1
smoothSolver:  Solving for h, Initial residual = 0.00524415, Final residual = 1.70013e-05, No Iterations 1000
smoothSolver:  Solving for p_rgh, Initial residual = 0.9115, Final residual = 0.911156, No Iterations 1000
diagonal:  Solving for rho, Initial residual = 0, Final residual = 0, No Iterations 0
time step continuity errors : sum local = -4.82816e-09, global = 4.82816e-09, cumulative = 1.74017e-07
smoothSolver:  Solving for Bx, Initial residual = 0.0226877, Final residual = 3.54903e-09, No Iterations 1
smoothSolver:  Solving for By, Initial residual = 0.0424726, Final residual = 8.75793e-09, No Iterations 1
DICPCG:  Solving for pB, Initial residual = 0.0134624, Final residual = 9.93142e-06, No Iterations 259
magnetic flux divergence error = 1.19999e-17
smoothSolver:  Solving for Bx, Initial residual = 3.45986e-09, Final residual = 3.45986e-09, No Iterations 0
smoothSolver:  Solving for By, Initial residual = 1.1785e-08, Final residual = 1.1785e-08, No Iterations 0
DICPCG:  Solving for pB, Initial residual = 9.80006e-06, Final residual = 9.80006e-06, No Iterations 0
magnetic flux divergence error = 1.19999e-17
smoothSolver:  Solving for Bx, Initial residual = 3.45986e-09, Final residual = 3.45986e-09, No Iterations 0
smoothSolver:  Solving for By, Initial residual = 1.1785e-08, Final residual = 1.1785e-08, No Iterations 0
DICPCG:  Solving for pB, Initial residual = 9.80006e-06, Final residual = 9.80006e-06, No Iterations 0
magnetic flux divergence error = 1.19999e-17
ExecutionTime = 162.88 s  ClockTime = 163 s

Courant Number mean: -4.1654e-06 max: -1.79004e-07
Time = 3.6e-06

PIMPLE: iteration 1
diagonal:  Solving for rho, Initial residual = 0, Final residual = 0, No Iterations 0
smoothSolver:  Solving for Ux, Initial residual = 0.0311212, Final residual = 4.908e-14, No Iterations 1
smoothSolver:  Solving for Uy, Initial residual = 0.0422311, Final residual = 9.75017e-14, No Iterations 1
smoothSolver:  Solving for h, Initial residual = 0.00567345, Final residual = 1.70153e-05, No Iterations 1000
smoothSolver:  Solving for p_rgh, Initial residual = 0.895059, Final residual = 0.894737, No Iterations 1000
diagonal:  Solving for rho, Initial residual = 0, Final residual = 0, No Iterations 0
time step continuity errors : sum local = -4.81267e-09, global = 4.81267e-09, cumulative = 1.7883e-07
smoothSolver:  Solving for Bx, Initial residual = 0.0212824, Final residual = 3.32987e-09, No Iterations 1
smoothSolver:  Solving for By, Initial residual = 0.0388897, Final residual = 8.01314e-09, No Iterations 1
DICPCG:  Solving for pB, Initial residual = 0.0130542, Final residual = 9.83975e-06, No Iterations 259
magnetic flux divergence error = 1.22071e-17
smoothSolver:  Solving for Bx, Initial residual = 3.24997e-09, Final residual = 3.24997e-09, No Iterations 0
smoothSolver:  Solving for By, Initial residual = 1.07826e-08, Final residual = 1.07826e-08, No Iterations 0
DICPCG:  Solving for pB, Initial residual = 9.71352e-06, Final residual = 9.71352e-06, No Iterations 0
magnetic flux divergence error = 1.22071e-17
smoothSolver:  Solving for Bx, Initial residual = 3.24997e-09, Final residual = 3.24997e-09, No Iterations 0
smoothSolver:  Solving for By, Initial residual = 1.07826e-08, Final residual = 1.07826e-08, No Iterations 0
DICPCG:  Solving for pB, Initial residual = 9.71352e-06, Final residual = 9.71352e-06, No Iterations 0
magnetic flux divergence error = 1.22071e-17
ExecutionTime = 167.39 s  ClockTime = 167 s

Courant Number mean: -4.08587e-06 max: -1.93674e-07
Time = 3.7e-06

PIMPLE: iteration 1
diagonal:  Solving for rho, Initial residual = 0, Final residual = 0, No Iterations 0
smoothSolver:  Solving for Ux, Initial residual = 0.0368454, Final residual = 5.6521e-14, No Iterations 1
smoothSolver:  Solving for Uy, Initial residual = 0.0501483, Final residual = 1.13716e-13, No Iterations 1
smoothSolver:  Solving for h, Initial residual = 0.00611449, Final residual = 1.70194e-05, No Iterations 1000
smoothSolver:  Solving for p_rgh, Initial residual = 0.882943, Final residual = 0.882641, No Iterations 1000
diagonal:  Solving for rho, Initial residual = 0, Final residual = 0, No Iterations 0
time step continuity errors : sum local = -4.79875e-09, global = 4.79875e-09, cumulative = 1.83629e-07
smoothSolver:  Solving for Bx, Initial residual = 0.0199406, Final residual = 3.12061e-09, No Iterations 1
smoothSolver:  Solving for By, Initial residual = 0.0359988, Final residual = 7.41318e-09, No Iterations 1
DICPCG:  Solving for pB, Initial residual = 0.0126697, Final residual = 9.96866e-06, No Iterations 258
magnetic flux divergence error = 1.26878e-17
smoothSolver:  Solving for Bx, Initial residual = 3.04934e-09, Final residual = 3.04934e-09, No Iterations 0
smoothSolver:  Solving for By, Initial residual = 9.97095e-09, Final residual = 9.97095e-09, No Iterations 0
DICPCG:  Solving for pB, Initial residual = 9.8445e-06, Final residual = 9.8445e-06, No Iterations 0
magnetic flux divergence error = 1.26878e-17
smoothSolver:  Solving for Bx, Initial residual = 3.04934e-09, Final residual = 3.04934e-09, No Iterations 0
smoothSolver:  Solving for By, Initial residual = 9.97095e-09, Final residual = 9.97095e-09, No Iterations 0
DICPCG:  Solving for pB, Initial residual = 9.8445e-06, Final residual = 9.8445e-06, No Iterations 0
magnetic flux divergence error = 1.26878e-17
ExecutionTime = 171.9 s  ClockTime = 172 s

Courant Number mean: -3.9924e-06 max: -2.06748e-07
Time = 3.8e-06

PIMPLE: iteration 1
diagonal:  Solving for rho, Initial residual = 0, Final residual = 0, No Iterations 0
smoothSolver:  Solving for Ux, Initial residual = 0.0408107, Final residual = 6.18049e-14, No Iterations 1
smoothSolver:  Solving for Uy, Initial residual = 0.0557054, Final residual = 1.2454e-13, No Iterations 1
smoothSolver:  Solving for h, Initial residual = 0.00656407, Final residual = 1.70019e-05, No Iterations 1000
smoothSolver:  Solving for p_rgh, Initial residual = 0.874716, Final residual = 0.874433, No Iterations 1000
diagonal:  Solving for rho, Initial residual = 0, Final residual = 0, No Iterations 0
time step continuity errors : sum local = -4.7865e-09, global = 4.7865e-09, cumulative = 1.88415e-07
smoothSolver:  Solving for Bx, Initial residual = 0.018664, Final residual = 2.92152e-09, No Iterations 1
smoothSolver:  Solving for By, Initial residual = 0.0336452, Final residual = 6.92431e-09, No Iterations 1
DICPCG:  Solving for pB, Initial residual = 0.0123089, Final residual = 9.8502e-06, No Iterations 220
magnetic flux divergence error = 1.28527e-17
smoothSolver:  Solving for Bx, Initial residual = 2.85786e-09, Final residual = 2.85786e-09, No Iterations 0
smoothSolver:  Solving for By, Initial residual = 9.30437e-09, Final residual = 9.30437e-09, No Iterations 0
DICPCG:  Solving for pB, Initial residual = 9.73005e-06, Final residual = 9.73005e-06, No Iterations 0
magnetic flux divergence error = 1.28527e-17
smoothSolver:  Solving for Bx, Initial residual = 2.85786e-09, Final residual = 2.85786e-09, No Iterations 0
smoothSolver:  Solving for By, Initial residual = 9.30437e-09, Final residual = 9.30437e-09, No Iterations 0
DICPCG:  Solving for pB, Initial residual = 9.73005e-06, Final residual = 9.73005e-06, No Iterations 0
magnetic flux divergence error = 1.28527e-17
ExecutionTime = 176.36 s  ClockTime = 176 s

Courant Number mean: -3.88712e-06 max: -2.18275e-07
Time = 3.9e-06

PIMPLE: iteration 1
diagonal:  Solving for rho, Initial residual = 0, Final residual = 0, No Iterations 0
smoothSolver:  Solving for Ux, Initial residual = 0.0433667, Final residual = 6.57776e-14, No Iterations 1
smoothSolver:  Solving for Uy, Initial residual = 0.0591554, Final residual = 1.31145e-13, No Iterations 1
smoothSolver:  Solving for h, Initial residual = 0.0070169, Final residual = 1.69649e-05, No Iterations 1000
smoothSolver:  Solving for p_rgh, Initial residual = 0.869747, Final residual = 0.869486, No Iterations 1000
diagonal:  Solving for rho, Initial residual = 0, Final residual = 0, No Iterations 0
time step continuity errors : sum local = -4.77592e-09, global = 4.77592e-09, cumulative = 1.93191e-07
smoothSolver:  Solving for Bx, Initial residual = 0.0174532, Final residual = 2.73268e-09, No Iterations 1
smoothSolver:  Solving for By, Initial residual = 0.0317142, Final residual = 6.52343e-09, No Iterations 1
DICPCG:  Solving for pB, Initial residual = 0.0119733, Final residual = 9.89975e-06, No Iterations 218
magnetic flux divergence error = 1.32348e-17
smoothSolver:  Solving for Bx, Initial residual = 2.67585e-09, Final residual = 2.67585e-09, No Iterations 0
smoothSolver:  Solving for By, Initial residual = 8.75926e-09, Final residual = 8.75926e-09, No Iterations 0
DICPCG:  Solving for pB, Initial residual = 9.78279e-06, Final residual = 9.78279e-06, No Iterations 0
magnetic flux divergence error = 1.32348e-17
smoothSolver:  Solving for Bx, Initial residual = 2.67585e-09, Final residual = 2.67585e-09, No Iterations 0
smoothSolver:  Solving for By, Initial residual = 8.75926e-09, Final residual = 8.75926e-09, No Iterations 0
DICPCG:  Solving for pB, Initial residual = 9.78279e-06, Final residual = 9.78279e-06, No Iterations 0
magnetic flux divergence error = 1.32348e-17
ExecutionTime = 180.81 s  ClockTime = 181 s

Courant Number mean: -3.77202e-06 max: -2.28181e-07
Time = 4e-06

PIMPLE: iteration 1
diagonal:  Solving for rho, Initial residual = 0, Final residual = 0, No Iterations 0
smoothSolver:  Solving for Ux, Initial residual = 0.0448795, Final residual = 6.88914e-14, No Iterations 1
smoothSolver:  Solving for Uy, Initial residual = 0.0608649, Final residual = 1.34543e-13, No Iterations 1
smoothSolver:  Solving for h, Initial residual = 0.00748518, Final residual = 1.70423e-05, No Iterations 1000
smoothSolver:  Solving for p_rgh, Initial residual = 0.867309, Final residual = 0.867074, No Iterations 1000
diagonal:  Solving for rho, Initial residual = 0, Final residual = 0, No Iterations 0
time step continuity errors : sum local = -4.76693e-09, global = 4.76693e-09, cumulative = 1.97958e-07
smoothSolver:  Solving for Bx, Initial residual = 0.0163071, Final residual = 2.55395e-09, No Iterations 1
smoothSolver:  Solving for By, Initial residual = 0.0301208, Final residual = 6.19164e-09, No Iterations 1
DICPCG:  Solving for pB, Initial residual = 0.0116596, Final residual = 9.68944e-06, No Iterations 113
magnetic flux divergence error = 1.32625e-17
smoothSolver:  Solving for Bx, Initial residual = 2.5032e-09, Final residual = 2.5032e-09, No Iterations 0
smoothSolver:  Solving for By, Initial residual = 8.3078e-09, Final residual = 8.3078e-09, No Iterations 0
DICPCG:  Solving for pB, Initial residual = 9.57476e-06, Final residual = 9.57476e-06, No Iterations 0
magnetic flux divergence error = 1.32625e-17
smoothSolver:  Solving for Bx, Initial residual = 2.5032e-09, Final residual = 2.5032e-09, No Iterations 0
smoothSolver:  Solving for By, Initial residual = 8.3078e-09, Final residual = 8.3078e-09, No Iterations 0
DICPCG:  Solving for pB, Initial residual = 9.57476e-06, Final residual = 9.57476e-06, No Iterations 0
magnetic flux divergence error = 1.32625e-17
ExecutionTime = 185.13 s  ClockTime = 185 s

Courant Number mean: -3.64892e-06 max: -2.36522e-07
Time = 4.1e-06

PIMPLE: iteration 1
diagonal:  Solving for rho, Initial residual = 0, Final residual = 0, No Iterations 0
smoothSolver:  Solving for Ux, Initial residual = 0.0456724, Final residual = 7.13208e-14, No Iterations 1
smoothSolver:  Solving for Uy, Initial residual = 0.0613212, Final residual = 1.3567e-13, No Iterations 1
smoothSolver:  Solving for h, Initial residual = 0.00798855, Final residual = 1.6997e-05, No Iterations 1000
smoothSolver:  Solving for p_rgh, Initial residual = 0.866666, Final residual = 0.866467, No Iterations 1000
diagonal:  Solving for rho, Initial residual = 0, Final residual = 0, No Iterations 0
time step continuity errors : sum local = -4.75939e-09, global = 4.75939e-09, cumulative = 2.02717e-07
smoothSolver:  Solving for Bx, Initial residual = 0.0152242, Final residual = 2.38505e-09, No Iterations 1
[...]
magnetic flux divergence error = 9.29e-17
ExecutionTime = 1158.16 s  ClockTime = 1158 s

Courant Number mean: -3.25949e-06 max: -1.60778e-06
Time = 3.66e-05

PIMPLE: iteration 1
diagonal:  Solving for rho, Initial residual = 0, Final residual = 0, No Iterations 0
smoothSolver:  Solving for Ux, Initial residual = 0.0131291, Final residual = 1.32403e-14, No Iterations 1
smoothSolver:  Solving for Uy, Initial residual = 0.0105279, Final residual = 1.89708e-14, No Iterations 1
smoothSolver:  Solving for h, Initial residual = 0.00214891, Final residual = 6.74664e-08, No Iterations 1
smoothSolver:  Solving for p_rgh, Initial residual = 0.973223, Final residual = 0.973223, No Iterations 1000
diagonal:  Solving for rho, Initial residual = 0, Final residual = 0, No Iterations 0
time step continuity errors : sum local = -3.3898e-09, global = 3.3898e-09, cumulative = 1.52987e-06
smoothSolver:  Solving for Bx, Initial residual = 0.00141115, Final residual = 2.30637e-10, No Iterations 1
smoothSolver:  Solving for By, Initial residual = 0.00575619, Final residual = 1.25272e-09, No Iterations 1
DICPCG:  Solving for pB, Initial residual = 0.00110107, Final residual = 9.55531e-06, No Iterations 79
magnetic flux divergence error = 9.26335e-17
smoothSolver:  Solving for Bx, Initial residual = 2.29067e-10, Final residual = 2.29067e-10, No Iterations 0
smoothSolver:  Solving for By, Initial residual = 1.36836e-09, Final residual = 1.36836e-09, No Iterations 0
DICPCG:  Solving for pB, Initial residual = 9.54487e-06, Final residual = 9.54487e-06, No Iterations 0
magnetic flux divergence error = 9.26335e-17
smoothSolver:  Solving for Bx, Initial residual = 2.29067e-10, Final residual = 2.29067e-10, No Iterations 0
smoothSolver:  Solving for By, Initial residual = 1.36836e-09, Final residual = 1.36836e-09, No Iterations 0
DICPCG:  Solving for pB, Initial residual = 9.54487e-06, Final residual = 9.54487e-06, No Iterations 0
magnetic flux divergence error = 9.26335e-17
ExecutionTime = 1160.43 s  ClockTime = 1161 s

Courant Number mean: -3.238e-06 max: -1.61141e-06
Time = 3.67e-05

PIMPLE: iteration 1
diagonal:  Solving for rho, Initial residual = 0, Final residual = 0, No Iterations 0
smoothSolver:  Solving for Ux, Initial residual = 0.0127462, Final residual = 1.28324e-14, No Iterations 1
smoothSolver:  Solving for Uy, Initial residual = 0.0102321, Final residual = 1.83746e-14, No Iterations 1
smoothSolver:  Solving for h, Initial residual = 0.00214257, Final residual = 6.71536e-08, No Iterations 1
smoothSolver:  Solving for p_rgh, Initial residual = 0.973853, Final residual = 0.973853, No Iterations 1000
diagonal:  Solving for rho, Initial residual = 0, Final residual = 0, No Iterations 0
time step continuity errors : sum local = -3.38621e-09, global = 3.38621e-09, cumulative = 1.53326e-06
smoothSolver:  Solving for Bx, Initial residual = 0.00139608, Final residual = 2.28283e-10, No Iterations 1
smoothSolver:  Solving for By, Initial residual = 0.00574156, Final residual = 1.24939e-09, No Iterations 1
DICPCG:  Solving for pB, Initial residual = 0.0010975, Final residual = 9.54675e-06, No Iterations 79
magnetic flux divergence error = 9.27523e-17
smoothSolver:  Solving for Bx, Initial residual = 2.26731e-10, Final residual = 2.26731e-10, No Iterations 0
smoothSolver:  Solving for By, Initial residual = 1.36525e-09, Final residual = 1.36525e-09, No Iterations 0
DICPCG:  Solving for pB, Initial residual = 9.53635e-06, Final residual = 9.53635e-06, No Iterations 0
magnetic flux divergence error = 9.27523e-17
smoothSolver:  Solving for Bx, Initial residual = 2.26731e-10, Final residual = 2.26731e-10, No Iterations 0
smoothSolver:  Solving for By, Initial residual = 1.36525e-09, Final residual = 1.36525e-09, No Iterations 0
DICPCG:  Solving for pB, Initial residual = 9.53635e-06, Final residual = 9.53635e-06, No Iterations 0
magnetic flux divergence error = 9.27523e-17
ExecutionTime = 1162.7 s  ClockTime = 1163 s

Courant Number mean: -3.21739e-06 max: -1.61494e-06
Time = 3.68e-05

PIMPLE: iteration 1
diagonal:  Solving for rho, Initial residual = 0, Final residual = 0, No Iterations 0
smoothSolver:  Solving for Ux, Initial residual = 0.0122304, Final residual = 1.23117e-14, No Iterations 1
smoothSolver:  Solving for Uy, Initial residual = 0.00984049, Final residual = 1.76153e-14, No Iterations 1
smoothSolver:  Solving for h, Initial residual = 0.00213624, Final residual = 6.6716e-08, No Iterations 1
smoothSolver:  Solving for p_rgh, Initial residual = 0.974678, Final residual = 0.974678, No Iterations 1000
diagonal:  Solving for rho, Initial residual = 0, Final residual = 0, No Iterations 0
time step continuity errors : sum local = -3.38271e-09, global = 3.38271e-09, cumulative = 1.53664e-06
smoothSolver:  Solving for Bx, Initial residual = 0.00138168, Final residual = 2.26035e-10, No Iterations 1
smoothSolver:  Solving for By, Initial residual = 0.00572772, Final residual = 1.24668e-09, No Iterations 1
DICPCG:  Solving for pB, Initial residual = 0.00109408, Final residual = 9.50819e-06, No Iterations 79
magnetic flux divergence error = 9.25787e-17
smoothSolver:  Solving for Bx, Initial residual = 2.245e-10, Final residual = 2.245e-10, No Iterations 0
smoothSolver:  Solving for By, Initial residual = 1.36206e-09, Final residual = 1.36206e-09, No Iterations 0
DICPCG:  Solving for pB, Initial residual = 9.49788e-06, Final residual = 9.49788e-06, No Iterations 0
magnetic flux divergence error = 9.25787e-17
smoothSolver:  Solving for Bx, Initial residual = 2.245e-10, Final residual = 2.245e-10, No Iterations 0
smoothSolver:  Solving for By, Initial residual = 1.36206e-09, Final residual = 1.36206e-09, No Iterations 0
DICPCG:  Solving for pB, Initial residual = 9.49788e-06, Final residual = 9.49788e-06, No Iterations 0
magnetic flux divergence error = 9.25787e-17
ExecutionTime = 1164.97 s  ClockTime = 1165 s

Courant Number mean: -3.19789e-06 max: -1.61838e-06
Time = 3.69e-05

PIMPLE: iteration 1
diagonal:  Solving for rho, Initial residual = 0, Final residual = 0, No Iterations 0
smoothSolver:  Solving for Ux, Initial residual = 0.0115888, Final residual = 1.16783e-14, No Iterations 1
smoothSolver:  Solving for Uy, Initial residual = 0.00935759, Final residual = 1.67046e-14, No Iterations 1
smoothSolver:  Solving for h, Initial residual = 0.00212984, Final residual = 6.60906e-08, No Iterations 1
smoothSolver:  Solving for p_rgh, Initial residual = 0.975689, Final residual = 0.975689, No Iterations 1000
diagonal:  Solving for rho, Initial residual = 0, Final residual = 0, No Iterations 0
time step continuity errors : sum local = -3.3793e-09, global = 3.3793e-09, cumulative = 1.54002e-06
smoothSolver:  Solving for Bx, Initial residual = 0.00136804, Final residual = 2.23906e-10, No Iterations 1
smoothSolver:  Solving for By, Initial residual = 0.00571437, Final residual = 1.24373e-09, No Iterations 1
DICPCG:  Solving for pB, Initial residual = 0.00109077, Final residual = 9.50532e-06, No Iterations 79
magnetic flux divergence error = 9.27513e-17
smoothSolver:  Solving for Bx, Initial residual = 2.22388e-10, Final residual = 2.22388e-10, No Iterations 0
smoothSolver:  Solving for By, Initial residual = 1.35941e-09, Final residual = 1.35941e-09, No Iterations 0
DICPCG:  Solving for pB, Initial residual = 9.49504e-06, Final residual = 9.49504e-06, No Iterations 0
magnetic flux divergence error = 9.27513e-17
smoothSolver:  Solving for Bx, Initial residual = 2.22388e-10, Final residual = 2.22388e-10, No Iterations 0
smoothSolver:  Solving for By, Initial residual = 1.35941e-09, Final residual = 1.35941e-09, No Iterations 0
DICPCG:  Solving for pB, Initial residual = 9.49504e-06, Final residual = 9.49504e-06, No Iterations 0
magnetic flux divergence error = 9.27513e-17
ExecutionTime = 1167.28 s  ClockTime = 1168 s

Courant Number mean: -3.17967e-06 max: -1.62173e-06
Time = 3.7e-05

PIMPLE: iteration 1
diagonal:  Solving for rho, Initial residual = 0, Final residual = 0, No Iterations 0
smoothSolver:  Solving for Ux, Initial residual = 0.0108294, Final residual = 1.0934e-14, No Iterations 1
smoothSolver:  Solving for Uy, Initial residual = 0.00878788, Final residual = 1.56512e-14, No Iterations 1
smoothSolver:  Solving for h, Initial residual = 0.00212338, Final residual = 6.53433e-08, No Iterations 1
smoothSolver:  Solving for p_rgh, Initial residual = 0.976877, Final residual = 0.976877, No Iterations 1000
diagonal:  Solving for rho, Initial residual = 0, Final residual = 0, No Iterations 0
time step continuity errors : sum local = -3.37597e-09, global = 3.37597e-09, cumulative = 1.54339e-06
smoothSolver:  Solving for Bx, Initial residual = 0.00135526, Final residual = 2.2191e-10, No Iterations 1
smoothSolver:  Solving for By, Initial residual = 0.00570084, Final residual = 1.24105e-09, No Iterations 1
DICPCG:  Solving for pB, Initial residual = 0.0010875, Final residual = 9.47394e-06, No Iterations 79
magnetic flux divergence error = 9.26448e-17
smoothSolver:  Solving for Bx, Initial residual = 2.20407e-10, Final residual = 2.20407e-10, No Iterations 0
smoothSolver:  Solving for By, Initial residual = 1.35741e-09, Final residual = 1.35741e-09, No Iterations 0
DICPCG:  Solving for pB, Initial residual = 9.46373e-06, Final residual = 9.46373e-06, No Iterations 0
magnetic flux divergence error = 9.26448e-17
smoothSolver:  Solving for Bx, Initial residual = 2.20407e-10, Final residual = 2.20407e-10, No Iterations 0
smoothSolver:  Solving for By, Initial residual = 1.35741e-09, Final residual = 1.35741e-09, No Iterations 0
DICPCG:  Solving for pB, Initial residual = 9.46373e-06, Final residual = 9.46373e-06, No Iterations 0
magnetic flux divergence error = 9.26448e-17
ExecutionTime = 1169.58 s  ClockTime = 1170 s

Courant Number mean: -3.16294e-06 max: -1.62501e-06
Time = 3.71e-05

PIMPLE: iteration 1
diagonal:  Solving for rho, Initial residual = 0, Final residual = 0, No Iterations 0
smoothSolver:  Solving for Ux, Initial residual = 0.00996144, Final residual = 1.00812e-14, No Iterations 1
smoothSolver:  Solving for Uy, Initial residual = 0.00813675, Final residual = 1.44667e-14, No Iterations 1
smoothSolver:  Solving for h, Initial residual = 0.00211694, Final residual = 6.48511e-08, No Iterations 1
smoothSolver:  Solving for p_rgh, Initial residual = 0.978228, Final residual = 0.978227, No Iterations 1000
diagonal:  Solving for rho, Initial residual = 0, Final residual = 0, No Iterations 0
time step continuity errors : sum local = -3.37272e-09, global = 3.37272e-09, cumulative = 1.54677e-06
smoothSolver:  Solving for Bx, Initial residual = 0.00134341, Final residual = 2.20058e-10, No Iterations 1
smoothSolver:  Solving for By, Initial residual = 0.00568745, Final residual = 1.23796e-09, No Iterations 1
DICPCG:  Solving for pB, Initial residual = 0.00108426, Final residual = 9.47468e-06, No Iterations 79
magnetic flux divergence error = 9.28516e-17
smoothSolver:  Solving for Bx, Initial residual = 2.1857e-10, Final residual = 2.1857e-10, No Iterations 0
smoothSolver:  Solving for By, Initial residual = 1.35485e-09, Final residual = 1.35485e-09, No Iterations 0
DICPCG:  Solving for pB, Initial residual = 9.4645e-06, Final residual = 9.4645e-06, No Iterations 0
magnetic flux divergence error = 9.28516e-17
smoothSolver:  Solving for Bx, Initial residual = 2.1857e-10, Final residual = 2.1857e-10, No Iterations 0
smoothSolver:  Solving for By, Initial residual = 1.35485e-09, Final residual = 1.35485e-09, No Iterations 0
DICPCG:  Solving for pB, Initial residual = 9.4645e-06, Final residual = 9.4645e-06, No Iterations 0
magnetic flux divergence error = 9.28516e-17
ExecutionTime = 1171.86 s  ClockTime = 1172 s

Courant Number mean: -3.14785e-06 max: -1.62821e-06
Time = 3.72e-05

PIMPLE: iteration 1
diagonal:  Solving for rho, Initial residual = 0, Final residual = 0, No Iterations 0
smoothSolver:  Solving for Ux, Initial residual = 0.00899535, Final residual = 9.12591e-15, No Iterations 1
smoothSolver:  Solving for Uy, Initial residual = 0.00741159, Final residual = 1.31645e-14, No Iterations 1
smoothSolver:  Solving for h, Initial residual = 0.00211049, Final residual = 6.4792e-08, No Iterations 1
smoothSolver:  Solving for p_rgh, Initial residual = 0.979725, Final residual = 0.979725, No Iterations 1000
diagonal:  Solving for rho, Initial residual = 0, Final residual = 0, No Iterations 0
time step continuity errors : sum local = -3.36955e-09, global = 3.36955e-09, cumulative = 1.55014e-06
smoothSolver:  Solving for Bx, Initial residual = 0.00133254, Final residual = 2.18361e-10, No Iterations 1
smoothSolver:  Solving for By, Initial residual = 0.00567435, Final residual = 1.23549e-09, No Iterations 1
DICPCG:  Solving for pB, Initial residual = 0.00108105, Final residual = 9.44837e-06, No Iterations 79
magnetic flux divergence error = 9.27925e-17
smoothSolver:  Solving for Bx, Initial residual = 2.16886e-10, Final residual = 2.16886e-10, No Iterations 0
smoothSolver:  Solving for By, Initial residual = 1.3525e-09, Final residual = 1.3525e-09, No Iterations 0
DICPCG:  Solving for pB, Initial residual = 9.43825e-06, Final residual = 9.43825e-06, No Iterations 0
magnetic flux divergence error = 9.27925e-17
smoothSolver:  Solving for Bx, Initial residual = 2.16886e-10, Final residual = 2.16886e-10, No Iterations 0
smoothSolver:  Solving for By, Initial residual = 1.3525e-09, Final residual = 1.3525e-09, No Iterations 0
DICPCG:  Solving for pB, Initial residual = 9.43825e-06, Final residual = 9.43825e-06, No Iterations 0
magnetic flux divergence error = 9.27925e-17
ExecutionTime = 1174.13 s  ClockTime = 1174 s

Courant Number mean: -3.13456e-06 max: -1.63134e-06
Time = 3.73e-05

PIMPLE: iteration 1
diagonal:  Solving for rho, Initial residual = 0, Final residual = 0, No Iterations 0
smoothSolver:  Solving for Ux, Initial residual = 0.00794235, Final residual = 8.07525e-15, No Iterations 1
smoothSolver:  Solving for Uy, Initial residual = 0.00662068, Final residual = 1.17604e-14, No Iterations 1
smoothSolver:  Solving for h, Initial residual = 0.002104, Final residual = 6.39476e-08, No Iterations 1
smoothSolver:  Solving for p_rgh, Initial residual = 0.981355, Final residual = 0.981355, No Iterations 1000
diagonal:  Solving for rho, Initial residual = 0, Final residual = 0, No Iterations 0
time step continuity errors : sum local = -3.36643e-09, global = 3.36643e-09, cumulative = 1.5535e-06
smoothSolver:  Solving for Bx, Initial residual = 0.00132271, Final residual = 2.16826e-10, No Iterations 1
smoothSolver:  Solving for By, Initial residual = 0.0056613, Final residual = 1.2326e-09, No Iterations 1
DICPCG:  Solving for pB, Initial residual = 0.00107786, Final residual = 9.45006e-06, No Iterations 79
magnetic flux divergence error = 9.30076e-17
smoothSolver:  Solving for Bx, Initial residual = 2.15364e-10, Final residual = 2.15364e-10, No Iterations 0
smoothSolver:  Solving for By, Initial residual = 1.34975e-09, Final residual = 1.34975e-09, No Iterations 0
DICPCG:  Solving for pB, Initial residual = 9.43997e-06, Final residual = 9.43997e-06, No Iterations 0
magnetic flux divergence error = 9.30076e-17
smoothSolver:  Solving for Bx, Initial residual = 2.15364e-10, Final residual = 2.15364e-10, No Iterations 0
smoothSolver:  Solving for By, Initial residual = 1.34975e-09, Final residual = 1.34975e-09, No Iterations 0
DICPCG:  Solving for pB, Initial residual = 9.43997e-06, Final residual = 9.43997e-06, No Iterations 0
magnetic flux divergence error = 9.30076e-17
ExecutionTime = 1176.39 s  ClockTime = 1177 s

Courant Number mean: -3.12319e-06 max: -1.63442e-06
Time = 3.74e-05

PIMPLE: iteration 1
diagonal:  Solving for rho, Initial residual = 0, Final residual = 0, No Iterations 0
smoothSolver:  Solving for Ux, Initial residual = 0.00681468, Final residual = 6.93995e-15, No Iterations 1
smoothSolver:  Solving for Uy, Initial residual = 0.00577279, Final residual = 1.02638e-14, No Iterations 1
smoothSolver:  Solving for h, Initial residual = 0.00209751, Final residual = 6.35696e-08, No Iterations 1
smoothSolver:  Solving for p_rgh, Initial residual = 0.983103, Final residual = 0.983103, No Iterations 1000
diagonal:  Solving for rho, Initial residual = 0, Final residual = 0, No Iterations 0
time step continuity errors : sum local = -3.36338e-09, global = 3.36338e-09, cumulative = 1.55687e-06
smoothSolver:  Solving for Bx, Initial residual = 0.00131397, Final residual = 2.15461e-10, No Iterations 1
smoothSolver:  Solving for By, Initial residual = 0.00564784, Final residual = 1.22966e-09, No Iterations 1
DICPCG:  Solving for pB, Initial residual = 0.00107469, Final residual = 9.42614e-06, No Iterations 79
magnetic flux divergence error = 9.29701e-17
smoothSolver:  Solving for Bx, Initial residual = 2.14009e-10, Final residual = 2.14009e-10, No Iterations 0
smoothSolver:  Solving for By, Initial residual = 1.34631e-09, Final residual = 1.34631e-09, No Iterations 0
DICPCG:  Solving for pB, Initial residual = 9.41611e-06, Final residual = 9.41611e-06, No Iterations 0
magnetic flux divergence error = 9.29701e-17
smoothSolver:  Solving for Bx, Initial residual = 2.14009e-10, Final residual = 2.14009e-10, No Iterations 0
smoothSolver:  Solving for By, Initial residual = 1.34631e-09, Final residual = 1.34631e-09, No Iterations 0
DICPCG:  Solving for pB, Initial residual = 9.41611e-06, Final residual = 9.41611e-06, No Iterations 0
magnetic flux divergence error = 9.29701e-17
ExecutionTime = 1178.67 s  ClockTime = 1179 s

Courant Number mean: -3.11386e-06 max: -1.63744e-06
Time = 3.75e-05

PIMPLE: iteration 1
diagonal:  Solving for rho, Initial residual = 0, Final residual = 0, No Iterations 0
smoothSolver:  Solving for Ux, Initial residual = 0.00562578, Final residual = 5.73199e-15, No Iterations 1
smoothSolver:  Solving for Uy, Initial residual = 0.00487978, Final residual = 8.69525e-15, No Iterations 1
smoothSolver:  Solving for h, Initial residual = 0.00209102, Final residual = 6.30075e-08, No Iterations 1
smoothSolver:  Solving for p_rgh, Initial residual = 0.98495, Final residual = 0.98495, No Iterations 1000
diagonal:  Solving for rho, Initial residual = 0, Final residual = 0, No Iterations 0
time step continuity errors : sum local = -3.36037e-09, global = 3.36037e-09, cumulative = 1.56023e-06
smoothSolver:  Solving for Bx, Initial residual = 0.00130635, Final residual = 2.14269e-10, No Iterations 1
smoothSolver:  Solving for By, Initial residual = 0.00563288, Final residual = 1.22627e-09, No Iterations 1
DICPCG:  Solving for pB, Initial residual = 0.00107154, Final residual = 9.42694e-06, No Iterations 79
magnetic flux divergence error = 9.31757e-17
smoothSolver:  Solving for Bx, Initial residual = 2.12828e-10, Final residual = 2.12828e-10, No Iterations 0
smoothSolver:  Solving for By, Initial residual = 1.34255e-09, Final residual = 1.34255e-09, No Iterations 0
DICPCG:  Solving for pB, Initial residual = 9.41694e-06, Final residual = 9.41694e-06, No Iterations 0
magnetic flux divergence error = 9.31757e-17
smoothSolver:  Solving for Bx, Initial residual = 2.12828e-10, Final residual = 2.12828e-10, No Iterations 0
smoothSolver:  Solving for By, Initial residual = 1.34255e-09, Final residual = 1.34255e-09, No Iterations 0
DICPCG:  Solving for pB, Initial residual = 9.41694e-06, Final residual = 9.41694e-06, No Iterations 0
magnetic flux divergence error = 9.31757e-17
ExecutionTime = 1180.93 s  ClockTime = 1181 s

Courant Number mean: -3.10664e-06 max: -1.64043e-06
Time = 3.76e-05

PIMPLE: iteration 1
diagonal:  Solving for rho, Initial residual = 0, Final residual = 0, No Iterations 0
smoothSolver:  Solving for Ux, Initial residual = 0.00439089, Final residual = 4.4701e-15, No Iterations 1
smoothSolver:  Solving for Uy, Initial residual = 0.00395081, Final residual = 7.06842e-15, No Iterations 1
smoothSolver:  Solving for h, Initial residual = 0.00208456, Final residual = 6.23559e-08, No Iterations 1
