/*---------------------------------------------------------------------------*\
| =========                 |                                                 |
| \\      /  F ield         | OpenFOAM: The Open Source CFD Toolbox           |
|  \\    /   O peration     | Version:  2512                                  |
|   \\  /    A nd           | Website:  www.openfoam.com                      |
|    \\/     M anipulation  |                                                 |
\*---------------------------------------------------------------------------*/
Build  : _87ed40d256-20251219 OPENFOAM=2512 version=v2512
Arch   : "LSB;label=32;scalar=64"
Exec   : magnetoHDFoam
Date   : May 12 2026
Time   : 12:55:35
Host   : Raf
PID    : 455129
I/O    : uncollated
Case   : /home/Raf/OpenFOAM/run/mhdTURBtest1
nProcs : 1
trapFpe: Floating point exception trapping enabled (FOAM_SIGFPE).
memory pool : not available
fileModificationChecking : Monitoring run-time modified files using timeStampMaster (fileModificationSkew 5, maxFileModificationPolls 20)
allowSystemOperations : Allowing user-supplied system call operations

// * * * * * * * * * * * * * * * * * * * * * * * * * * * * * * * * * * * * * //
Create time

Create mesh for time = 0


PIMPLE: Operating solver in PISO mode


PISO: Operating solver in PISO mode


BPISO: Operating solver in PISO mode

Reading thermophysical properties

Selecting thermodynamics package 
{
    type            heRhoThermo;
    mixture         pureMixture;
    transport       const;
    thermo          hConst;
    equationOfState Boussinesq;
    specie          specie;
    energy          sensibleEnthalpy;
}

Reading field U

Reading/calculating face flux field phi

Creating turbulence model

Selecting turbulence model type laminar
Selecting laminar stress model Stokes

Reading g

Reading hRef
Calculating field g.h

Reading field p_rgh

Creating field dpdt

Creating field kinetic energy K

No MRF models present

No finite volume options present
Reading field pB

Reading field B

Calculating face flux phiB

Reading transportProperties

Courant Number mean: 2.5e-09 max: 2.5e-06

Starting time loop

Courant Number mean: 2.5e-09 max: 2.5e-06
Time = 1e-07

PIMPLE: iteration 1
diagonal:  Solving for rho, Initial residual = 0, Final residual = 0, No Iterations 0
smoothSolver:  Solving for Ux, Initial residual = 1, Final residual = 2.8194e-14, No Iterations 2
smoothSolver:  Solving for Uy, Initial residual = 1, Final residual = 6.98072e-14, No Iterations 2
smoothSolver:  Solving for h, Initial residual = 3.82359e-05, Final residual = 3.31794e-05, No Iterations 1000
smoothSolver:  Solving for p_rgh, Initial residual = 1, Final residual = 0.999987, No Iterations 1000
diagonal:  Solving for rho, Initial residual = 0, Final residual = 0, No Iterations 0
time step continuity errors : sum local = 5.00003e-09, global = 5e-09, cumulative = 5e-09
smoothSolver:  Solving for Bx, Initial residual = 1, Final residual = 1.54849e-07, No Iterations 1
smoothSolver:  Solving for By, Initial residual = 1, Final residual = 1.81764e-07, No Iterations 1
DICPCG:  Solving for pB, Initial residual = 1, Final residual = 9.18865e-06, No Iterations 532
magnetic flux divergence error = 1.83836e-19
smoothSolver:  Solving for Bx, Initial residual = 1.18197e-07, Final residual = 1.18197e-07, No Iterations 0
smoothSolver:  Solving for By, Initial residual = 2.06266e-07, Final residual = 2.06266e-07, No Iterations 0
DICPCG:  Solving for pB, Initial residual = 4.59432e-06, Final residual = 4.59432e-06, No Iterations 0
magnetic flux divergence error = 1.83836e-19
smoothSolver:  Solving for Bx, Initial residual = 1.18197e-07, Final residual = 1.18197e-07, No Iterations 0
smoothSolver:  Solving for By, Initial residual = 2.06266e-07, Final residual = 2.06266e-07, No Iterations 0
DICPCG:  Solving for pB, Initial residual = 4.59432e-06, Final residual = 4.59432e-06, No Iterations 0
magnetic flux divergence error = 1.83836e-19
ExecutionTime = 5.53 s  ClockTime = 5 s

Courant Number mean: 1.79968e-07 max: 5.00029e-06
Time = 2e-07

PIMPLE: iteration 1
diagonal:  Solving for rho, Initial residual = 0, Final residual = 0, No Iterations 0
smoothSolver:  Solving for Ux, Initial residual = 0.220643, Final residual = 1.51668e-14, No Iterations 2
smoothSolver:  Solving for Uy, Initial residual = 0.331678, Final residual = 2.25534e-14, No Iterations 2
smoothSolver:  Solving for h, Initial residual = 0.00025644, Final residual = 2.1606e-05, No Iterations 1000
