/*---------------------------------------------------------------------------*\
| =========                 |                                                 |
| \\      /  F ield         | OpenFOAM: The Open Source CFD Toolbox           |
|  \\    /   O peration     | Version:  2512                                  |
|   \\  /    A nd           | Website:  www.openfoam.com                      |
|    \\/     M anipulation  |                                                 |
\*---------------------------------------------------------------------------*/
Build  : _87ed40d256-20251219 OPENFOAM=2512 version=v2512
Arch   : "LSB;label=32;scalar=64"
Exec   : magnetoHDFoam
Date   : May 12 2026
Time   : 11:49:20
Host   : Raf
PID    : 347534
I/O    : uncollated
Case   : /home/Raf/OpenFOAM/run/mhdTURBtest1
nProcs : 1
trapFpe: Floating point exception trapping enabled (FOAM_SIGFPE).
memory pool : not available
fileModificationChecking : Monitoring run-time modified files using timeStampMaster (fileModificationSkew 5, maxFileModificationPolls 20)
allowSystemOperations : Allowing user-supplied system call operations

// * * * * * * * * * * * * * * * * * * * * * * * * * * * * * * * * * * * * * //
Create time

Create mesh for time = 0


PIMPLE: Operating solver in PISO mode


PISO: Operating solver in PISO mode


BPISO: Operating solver in PISO mode

Reading thermophysical properties

Selecting thermodynamics package 
{
    type            heRhoThermo;
    mixture         pureMixture;
    transport       const;
    thermo          hConst;
    equationOfState Boussinesq;
    specie          specie;
    energy          sensibleEnthalpy;
}

Reading field U

Reading/calculating face flux field phi

Creating turbulence model

Selecting turbulence model type laminar
Selecting laminar stress model Stokes

Reading g

Reading hRef
Calculating field g.h

Reading field p_rgh

Creating field dpdt

Creating field kinetic energy K

No MRF models present

No finite volume options present
Reading field pB

Reading field B

Calculating face flux phiB

Reading transportProperties

Courant Number mean: -0.000125 max: -0

Starting time loop

Courant Number mean: -0.000125 max: -0
Time = 0.005

PIMPLE: iteration 1
diagonal:  Solving for rho, Initial residual = 0, Final residual = 0, No Iterations 0
smoothSolver:  Solving for Ux, Initial residual = 1, Final residual = 1.32084e-07, No Iterations 3
smoothSolver:  Solving for Uy, Initial residual = 1, Final residual = 5.84464e-07, No Iterations 3
smoothSolver:  Solving for h, Initial residual = 4.07713e-05, Final residual = 1.95905e-05, No Iterations 1000
smoothSolver:  Solving for p_rgh, Initial residual = 0.883637, Final residual = 0.570198, No Iterations 1000
diagonal:  Solving for rho, Initial residual = 0, Final residual = 0, No Iterations 0
time step continuity errors : sum local = -0.000350193, global = 0.000249938, cumulative = 0.000249938
smoothSolver:  Solving for Bx, Initial residual = 1, Final residual = 9.45098e-06, No Iterations 101
smoothSolver:  Solving for By, Initial residual = 1, Final residual = 9.56834e-06, No Iterations 139
DICPCG:  Solving for pB, Initial residual = 1, Final residual = 9.67745e-06, No Iterations 527
magnetic flux divergence error = 7.52137e-10
smoothSolver:  Solving for Bx, Initial residual = 0.00232612, Final residual = 9.43244e-06, No Iterations 54
smoothSolver:  Solving for By, Initial residual = 0.00100599, Final residual = 9.59919e-06, No Iterations 54
DICPCG:  Solving for pB, Initial residual = 0.00242535, Final residual = 9.47976e-06, No Iterations 100
magnetic flux divergence error = 1.49785e-09
smoothSolver:  Solving for Bx, Initial residual = 2.65709e-05, Final residual = 9.61228e-06, No Iterations 7
smoothSolver:  Solving for By, Initial residual = 1.70679e-05, Final residual = 9.65906e-06, No Iterations 4
DICPCG:  Solving for pB, Initial residual = 2.75602e-05, Final residual = 9.65422e-06, No Iterations 26
magnetic flux divergence error = 1.52854e-09
ExecutionTime = 6.4 s  ClockTime = 7 s

Courant Number mean: -0.0126954 max: -6.37583e-05
Time = 0.01

PIMPLE: iteration 1
diagonal:  Solving for rho, Initial residual = 0, Final residual = 0, No Iterations 0
smoothSolver:  Solving for Ux, Initial residual = 0.191003, Final residual = 6.69709e-06, No Iterations 2
smoothSolver:  Solving for Uy, Initial residual = 0.73625, Final residual = 4.16289e-07, No Iterations 3
smoothSolver:  Solving for h, Initial residual = 0.999993, Final residual = 4.10151e-08, No Iterations 4
smoothSolver:  Solving for p_rgh, Initial residual = 0.843425, Final residual = 0.326849, No Iterations 1000
diagonal:  Solving for rho, Initial residual = 0, Final residual = 0, No Iterations 0
time step continuity errors : sum local = -0.000328614, global = 0.000249899, cumulative = 0.000499836
smoothSolver:  Solving for Bx, Initial residual = 0.327314, Final residual = 9.50884e-06, No Iterations 94
smoothSolver:  Solving for By, Initial residual = 0.195009, Final residual = 9.60715e-06, No Iterations 122
DICPCG:  Solving for pB, Initial residual = 0.313472, Final residual = 9.44433e-06, No Iterations 514
magnetic flux divergence error = 2.16259e-09
smoothSolver:  Solving for Bx, Initial residual = 0.000830936, Final residual = 9.96495e-06, No Iterations 39
smoothSolver:  Solving for By, Initial residual = 0.000326372, Final residual = 9.39912e-06, No Iterations 39
DICPCG:  Solving for pB, Initial residual = 0.000715124, Final residual = 9.69135e-06, No Iterations 81
magnetic flux divergence error = 2.92914e-09
smoothSolver:  Solving for Bx, Initial residual = 1.33801e-05, Final residual = 9.4539e-06, No Iterations 3
smoothSolver:  Solving for By, Initial residual = 1.05869e-05, Final residual = 9.38796e-06, No Iterations 1
DICPCG:  Solving for pB, Initial residual = 1.27067e-05, Final residual = 9.82981e-06, No Iterations 11
magnetic flux divergence error = 2.97272e-09
ExecutionTime = 9.96 s  ClockTime = 10 s

Courant Number mean: -0.0189502 max: -5.40186e-05
Time = 0.015

PIMPLE: iteration 1
diagonal:  Solving for rho, Initial residual = 0, Final residual = 0, No Iterations 0
smoothSolver:  Solving for Ux, Initial residual = 0.116316, Final residual = 4.04485e-06, No Iterations 2
smoothSolver:  Solving for Uy, Initial residual = 0.142688, Final residual = 9.63332e-06, No Iterations 2
smoothSolver:  Solving for h, Initial residual = 0.326352, Final residual = 2.47056e-08, No Iterations 4
smoothSolver:  Solving for p_rgh, Initial residual = 0.684365, Final residual = 0.473671, No Iterations 1000
diagonal:  Solving for rho, Initial residual = 0, Final residual = 0, No Iterations 0
time step continuity errors : sum local = -0.000279187, global = 0.000249828, cumulative = 0.000749664
smoothSolver:  Solving for Bx, Initial residual = 0.220457, Final residual = 9.67872e-06, No Iterations 91
smoothSolver:  Solving for By, Initial residual = 0.0991067, Final residual = 9.47017e-06, No Iterations 115
DICPCG:  Solving for pB, Initial residual = 0.16807, Final residual = 8.98296e-06, No Iterations 498
magnetic flux divergence error = 3.20408e-09
smoothSolver:  Solving for Bx, Initial residual = 0.000340942, Final residual = 9.19269e-06, No Iterations 29
smoothSolver:  Solving for By, Initial residual = 0.000145434, Final residual = 9.30136e-06, No Iterations 30
DICPCG:  Solving for pB, Initial residual = 0.00031815, Final residual = 9.59973e-06, No Iterations 65
magnetic flux divergence error = 3.96508e-09
smoothSolver:  Solving for Bx, Initial residual = 1.00228e-05, Final residual = 9.17381e-06, No Iterations 1
smoothSolver:  Solving for By, Initial residual = 9.53737e-06, Final residual = 9.53737e-06, No Iterations 0
DICPCG:  Solving for pB, Initial residual = 1.0012e-05, Final residual = 6.9356e-06, No Iterations 1
magnetic flux divergence error = 2.86539e-09
ExecutionTime = 13.43 s  ClockTime = 14 s

Courant Number mean: -0.0241271 max: -2.14465e-05
Time = 0.02

PIMPLE: iteration 1
diagonal:  Solving for rho, Initial residual = 0, Final residual = 0, No Iterations 0
smoothSolver:  Solving for Ux, Initial residual = 0.0883826, Final residual = 3.28919e-06, No Iterations 2
smoothSolver:  Solving for Uy, Initial residual = 0.724305, Final residual = 4.03457e-07, No Iterations 3
smoothSolver:  Solving for h, Initial residual = 0.180039, Final residual = 2.9267e-08, No Iterations 4
smoothSolver:  Solving for p_rgh, Initial residual = 0.494289, Final residual = 0.457259, No Iterations 1000
diagonal:  Solving for rho, Initial residual = 0, Final residual = 0, No Iterations 0
time step continuity errors : sum local = -0.000251402, global = 0.000249747, cumulative = 0.000999411
smoothSolver:  Solving for Bx, Initial residual = 0.169674, Final residual = 9.44493e-06, No Iterations 89
smoothSolver:  Solving for By, Initial residual = 0.0719572, Final residual = 9.36852e-06, No Iterations 111
DICPCG:  Solving for pB, Initial residual = 0.130404, Final residual = 9.97232e-06, No Iterations 475
magnetic flux divergence error = 4.5585e-09
smoothSolver:  Solving for Bx, Initial residual = 0.000157001, Final residual = 9.54937e-06, No Iterations 20
smoothSolver:  Solving for By, Initial residual = 8.49531e-05, Final residual = 9.37363e-06, No Iterations 25
DICPCG:  Solving for pB, Initial residual = 0.000187985, Final residual = 9.7765e-06, No Iterations 57
magnetic flux divergence error = 4.91593e-09
smoothSolver:  Solving for Bx, Initial residual = 9.89448e-06, Final residual = 9.89448e-06, No Iterations 0
smoothSolver:  Solving for By, Initial residual = 9.46302e-06, Final residual = 9.46302e-06, No Iterations 0
DICPCG:  Solving for pB, Initial residual = 9.7752e-06, Final residual = 9.7752e-06, No Iterations 0
magnetic flux divergence error = 4.91593e-09
ExecutionTime = 16.84 s  ClockTime = 17 s

Courant Number mean: -0.0301177 max: -1.28466e-06
Time = 0.025

PIMPLE: iteration 1
diagonal:  Solving for rho, Initial residual = 0, Final residual = 0, No Iterations 0
smoothSolver:  Solving for Ux, Initial residual = 0.0729588, Final residual = 3.19373e-06, No Iterations 2
smoothSolver:  Solving for Uy, Initial residual = 0.900899, Final residual = 5.10962e-07, No Iterations 3
smoothSolver:  Solving for h, Initial residual = 0.126468, Final residual = 4.64028e-08, No Iterations 4
smoothSolver:  Solving for p_rgh, Initial residual = 0.585215, Final residual = 0.528517, No Iterations 1000
diagonal:  Solving for rho, Initial residual = 0, Final residual = 0, No Iterations 0
time step continuity errors : sum local = -0.000260146, global = 0.000249669, cumulative = 0.00124908
smoothSolver:  Solving for Bx, Initial residual = 0.139717, Final residual = 9.33484e-06, No Iterations 87
smoothSolver:  Solving for By, Initial residual = 0.059108, Final residual = 9.6143e-06, No Iterations 108
DICPCG:  Solving for pB, Initial residual = 0.115607, Final residual = 9.59279e-06, No Iterations 472
magnetic flux divergence error = 5.22246e-09
smoothSolver:  Solving for Bx, Initial residual = 7.933e-05, Final residual = 9.65639e-06, No Iterations 13
smoothSolver:  Solving for By, Initial residual = 6.07863e-05, Final residual = 9.40325e-06, No Iterations 22
DICPCG:  Solving for pB, Initial residual = 0.000128673, Final residual = 9.99809e-06, No Iterations 48
magnetic flux divergence error = 5.87595e-09
smoothSolver:  Solving for Bx, Initial residual = 9.82522e-06, Final residual = 9.82522e-06, No Iterations 0
smoothSolver:  Solving for By, Initial residual = 9.45664e-06, Final residual = 9.45664e-06, No Iterations 0
DICPCG:  Solving for pB, Initial residual = 9.99723e-06, Final residual = 9.99723e-06, No Iterations 0
magnetic flux divergence error = 5.87595e-09
ExecutionTime = 20.17 s  ClockTime = 21 s

Courant Number mean: -0.03778 max: -9.30323e-06
Time = 0.03

PIMPLE: iteration 1
diagonal:  Solving for rho, Initial residual = 0, Final residual = 0, No Iterations 0
smoothSolver:  Solving for Ux, Initial residual = 0.0629671, Final residual = 3.44846e-06, No Iterations 2
smoothSolver:  Solving for Uy, Initial residual = 0.57796, Final residual = 3.96516e-07, No Iterations 3
smoothSolver:  Solving for h, Initial residual = 0.0990952, Final residual = 8.25822e-08, No Iterations 4
smoothSolver:  Solving for p_rgh, Initial residual = 0.600883, Final residual = 0.556236, No Iterations 1000
diagonal:  Solving for rho, Initial residual = 0, Final residual = 0, No Iterations 0
time step continuity errors : sum local = -0.000257327, global = 0.000249597, cumulative = 0.00149868
smoothSolver:  Solving for Bx, Initial residual = 0.120434, Final residual = 9.24803e-06, No Iterations 85
smoothSolver:  Solving for By, Initial residual = 0.049901, Final residual = 9.41531e-06, No Iterations 106
DICPCG:  Solving for pB, Initial residual = 0.0997379, Final residual = 9.39163e-06, No Iterations 468
magnetic flux divergence error = 5.92576e-09
smoothSolver:  Solving for Bx, Initial residual = 4.5447e-05, Final residual = 9.18579e-06, No Iterations 9
smoothSolver:  Solving for By, Initial residual = 5.09682e-05, Final residual = 9.85719e-06, No Iterations 19
DICPCG:  Solving for pB, Initial residual = 9.37102e-05, Final residual = 9.18739e-06, No Iterations 46
magnetic flux divergence error = 6.21295e-09
smoothSolver:  Solving for Bx, Initial residual = 9.26505e-06, Final residual = 9.26505e-06, No Iterations 0
smoothSolver:  Solving for By, Initial residual = 9.9034e-06, Final residual = 9.9034e-06, No Iterations 0
DICPCG:  Solving for pB, Initial residual = 9.18684e-06, Final residual = 9.18684e-06, No Iterations 0
magnetic flux divergence error = 6.21295e-09
ExecutionTime = 23.47 s  ClockTime = 24 s

Courant Number mean: -0.0449569 max: -7.54415e-06
Time = 0.035

PIMPLE: iteration 1
diagonal:  Solving for rho, Initial residual = 0, Final residual = 0, No Iterations 0
smoothSolver:  Solving for Ux, Initial residual = 0.0560047, Final residual = 4.10709e-06, No Iterations 2
smoothSolver:  Solving for Uy, Initial residual = 0.0763036, Final residual = 4.28707e-07, No Iterations 3
smoothSolver:  Solving for h, Initial residual = 0.0824571, Final residual = 1.55159e-07, No Iterations 4
smoothSolver:  Solving for p_rgh, Initial residual = 0.596953, Final residual = 0.572952, No Iterations 1000
diagonal:  Solving for rho, Initial residual = 0, Final residual = 0, No Iterations 0
time step continuity errors : sum local = -0.0002524, global = 0.00024953, cumulative = 0.00174821
smoothSolver:  Solving for Bx, Initial residual = 0.107244, Final residual = 9.92037e-06, No Iterations 82
smoothSolver:  Solving for By, Initial residual = 0.0435582, Final residual = 9.55284e-06, No Iterations 104
DICPCG:  Solving for pB, Initial residual = 0.0865123, Final residual = 9.96801e-06, No Iterations 454
magnetic flux divergence error = 7.19443e-09
smoothSolver:  Solving for Bx, Initial residual = 3.0598e-05, Final residual = 9.17833e-06, No Iterations 6
smoothSolver:  Solving for By, Initial residual = 4.59031e-05, Final residual = 9.97885e-06, No Iterations 17
DICPCG:  Solving for pB, Initial residual = 7.32959e-05, Final residual = 8.84967e-06, No Iterations 40
magnetic flux divergence error = 6.81169e-09
smoothSolver:  Solving for Bx, Initial residual = 9.21976e-06, Final residual = 9.21976e-06, No Iterations 0
smoothSolver:  Solving for By, Initial residual = 1.00209e-05, Final residual = 9.24523e-06, No Iterations 1
DICPCG:  Solving for pB, Initial residual = 9.11431e-06, Final residual = 9.11431e-06, No Iterations 0
magnetic flux divergence error = 7.01574e-09
ExecutionTime = 26.7 s  ClockTime = 27 s

Courant Number mean: -0.0520398 max: -4.2514e-06
Time = 0.04

PIMPLE: iteration 1
diagonal:  Solving for rho, Initial residual = 0, Final residual = 0, No Iterations 0
smoothSolver:  Solving for Ux, Initial residual = 0.0509872, Final residual = 5.43101e-06, No Iterations 2
smoothSolver:  Solving for Uy, Initial residual = 0.38496, Final residual = 1.12171e-06, No Iterations 3
smoothSolver:  Solving for h, Initial residual = 0.0735644, Final residual = 3.02584e-07, No Iterations 4
smoothSolver:  Solving for p_rgh, Initial residual = 0.59175, Final residual = 0.576531, No Iterations 1000
diagonal:  Solving for rho, Initial residual = 0, Final residual = 0, No Iterations 0
time step continuity errors : sum local = -0.000250482, global = 0.000249464, cumulative = 0.00199767
smoothSolver:  Solving for Bx, Initial residual = 0.0979694, Final residual = 9.71051e-06, No Iterations 80
smoothSolver:  Solving for By, Initial residual = 0.039249, Final residual = 9.24097e-06, No Iterations 103
DICPCG:  Solving for pB, Initial residual = 0.0768325, Final residual = 9.71579e-06, No Iterations 449
magnetic flux divergence error = 7.93391e-09
smoothSolver:  Solving for Bx, Initial residual = 2.33681e-05, Final residual = 9.8936e-06, No Iterations 3
smoothSolver:  Solving for By, Initial residual = 4.148e-05, Final residual = 9.56445e-06, No Iterations 16
DICPCG:  Solving for pB, Initial residual = 6.07652e-05, Final residual = 9.87322e-06, No Iterations 37
magnetic flux divergence error = 8.55413e-09
smoothSolver:  Solving for Bx, Initial residual = 9.91867e-06, Final residual = 9.91867e-06, No Iterations 0
smoothSolver:  Solving for By, Initial residual = 9.59104e-06, Final residual = 9.59104e-06, No Iterations 0
DICPCG:  Solving for pB, Initial residual = 9.87286e-06, Final residual = 9.87286e-06, No Iterations 0
magnetic flux divergence error = 8.55413e-09
ExecutionTime = 29.91 s  ClockTime = 30 s

Courant Number mean: -0.0592841 max: -8.34795e-06
Time = 0.045

PIMPLE: iteration 1
diagonal:  Solving for rho, Initial residual = 0, Final residual = 0, No Iterations 0
smoothSolver:  Solving for Ux, Initial residual = 0.0473147, Final residual = 7.97002e-06, No Iterations 2
smoothSolver:  Solving for Uy, Initial residual = 0.317677, Final residual = 2.36898e-06, No Iterations 3
smoothSolver:  Solving for h, Initial residual = 0.066198, Final residual = 6.11314e-07, No Iterations 4
smoothSolver:  Solving for p_rgh, Initial residual = 0.606261, Final residual = 0.587291, No Iterations 1000
diagonal:  Solving for rho, Initial residual = 0, Final residual = 0, No Iterations 0
time step continuity errors : sum local = -0.000250902, global = 0.000249397, cumulative = 0.00224707
smoothSolver:  Solving for Bx, Initial residual = 0.0912877, Final residual = 9.47298e-06, No Iterations 78
smoothSolver:  Solving for By, Initial residual = 0.0362508, Final residual = 9.92487e-06, No Iterations 101
DICPCG:  Solving for pB, Initial residual = 0.0698057, Final residual = 9.92277e-06, No Iterations 391
magnetic flux divergence error = 9.06739e-09
smoothSolver:  Solving for Bx, Initial residual = 1.98483e-05, Final residual = 9.62613e-06, No Iterations 2
smoothSolver:  Solving for By, Initial residual = 3.87281e-05, Final residual = 9.67216e-06, No Iterations 15
DICPCG:  Solving for pB, Initial residual = 5.3875e-05, Final residual = 9.31327e-06, No Iterations 36
magnetic flux divergence error = 8.98187e-09
smoothSolver:  Solving for Bx, Initial residual = 9.64016e-06, Final residual = 9.64016e-06, No Iterations 0
smoothSolver:  Solving for By, Initial residual = 9.68137e-06, Final residual = 9.68137e-06, No Iterations 0
DICPCG:  Solving for pB, Initial residual = 9.31291e-06, Final residual = 9.31291e-06, No Iterations 0
magnetic flux divergence error = 8.98187e-09
ExecutionTime = 33.03 s  ClockTime = 33 s

Courant Number mean: -0.0667056 max: -3.14414e-05
Time = 0.05

PIMPLE: iteration 1
diagonal:  Solving for rho, Initial residual = 0, Final residual = 0, No Iterations 0
smoothSolver:  Solving for Ux, Initial residual = 0.0446348, Final residual = 1.22006e-06, No Iterations 3
smoothSolver:  Solving for Uy, Initial residual = 0.161446, Final residual = 5.76583e-06, No Iterations 3
smoothSolver:  Solving for h, Initial residual = 0.0597903, Final residual = 1.2235e-07, No Iterations 5
smoothSolver:  Solving for p_rgh, Initial residual = 0.613092, Final residual = 0.593941, No Iterations 1000
diagonal:  Solving for rho, Initial residual = 0, Final residual = 0, No Iterations 0
time step continuity errors : sum local = -0.000250803, global = 0.000249328, cumulative = 0.0024964
smoothSolver:  Solving for Bx, Initial residual = 0.0863543, Final residual = 9.55067e-06, No Iterations 76
smoothSolver:  Solving for By, Initial residual = 0.0340773, Final residual = 9.25121e-06, No Iterations 101
DICPCG:  Solving for pB, Initial residual = 0.0643555, Final residual = 9.96403e-06, No Iterations 378
magnetic flux divergence error = 1.00814e-08
smoothSolver:  Solving for Bx, Initial residual = 1.85912e-05, Final residual = 9.29205e-06, No Iterations 2
smoothSolver:  Solving for By, Initial residual = 3.52548e-05, Final residual = 9.55565e-06, No Iterations 14
DICPCG:  Solving for pB, Initial residual = 4.73838e-05, Final residual = 9.52973e-06, No Iterations 23
magnetic flux divergence error = 1.01303e-08
smoothSolver:  Solving for Bx, Initial residual = 9.30441e-06, Final residual = 9.30441e-06, No Iterations 0
smoothSolver:  Solving for By, Initial residual = 9.5593e-06, Final residual = 9.5593e-06, No Iterations 0
DICPCG:  Solving for pB, Initial residual = 9.52946e-06, Final residual = 9.52946e-06, No Iterations 0
magnetic flux divergence error = 1.01303e-08
ExecutionTime = 36.11 s  ClockTime = 37 s

Courant Number mean: -0.074107 max: -7.71047e-05
Time = 0.055

PIMPLE: iteration 1
diagonal:  Solving for rho, Initial residual = 0, Final residual = 0, No Iterations 0
smoothSolver:  Solving for Ux, Initial residual = 0.0427523, Final residual = 3.00574e-06, No Iterations 3
smoothSolver:  Solving for Uy, Initial residual = 0.0799084, Final residual = 2.35353e-06, No Iterations 4
smoothSolver:  Solving for h, Initial residual = 0.0541486, Final residual = 3.56809e-07, No Iterations 5
smoothSolver:  Solving for p_rgh, Initial residual = 0.618257, Final residual = 0.598792, No Iterations 1000
diagonal:  Solving for rho, Initial residual = 0, Final residual = 0, No Iterations 0
time step continuity errors : sum local = -0.000251149, global = 0.000249258, cumulative = 0.00274565
smoothSolver:  Solving for Bx, Initial residual = 0.0827752, Final residual = 9.19986e-06, No Iterations 75
smoothSolver:  Solving for By, Initial residual = 0.0324848, Final residual = 9.47376e-06, No Iterations 100
DICPCG:  Solving for pB, Initial residual = 0.059832, Final residual = 9.61766e-06, No Iterations 375
magnetic flux divergence error = 1.06777e-08
smoothSolver:  Solving for Bx, Initial residual = 1.79739e-05, Final residual = 9.07231e-06, No Iterations 2
smoothSolver:  Solving for By, Initial residual = 3.30346e-05, Final residual = 9.82058e-06, No Iterations 13
DICPCG:  Solving for pB, Initial residual = 4.33037e-05, Final residual = 9.30419e-06, No Iterations 23
magnetic flux divergence error = 1.08086e-08
smoothSolver:  Solving for Bx, Initial residual = 9.08259e-06, Final residual = 9.08259e-06, No Iterations 0
smoothSolver:  Solving for By, Initial residual = 9.82394e-06, Final residual = 9.82394e-06, No Iterations 0
DICPCG:  Solving for pB, Initial residual = 9.30396e-06, Final residual = 9.30396e-06, No Iterations 0
magnetic flux divergence error = 1.08086e-08
ExecutionTime = 39.2 s  ClockTime = 40 s

Courant Number mean: -0.081534 max: -0.000158549
Time = 0.06

PIMPLE: iteration 1
diagonal:  Solving for rho, Initial residual = 0, Final residual = 0, No Iterations 0
smoothSolver:  Solving for Ux, Initial residual = 0.0415089, Final residual = 7.96465e-06, No Iterations 3
smoothSolver:  Solving for Uy, Initial residual = 0.0989733, Final residual = 8.23602e-06, No Iterations 4
smoothSolver:  Solving for h, Initial residual = 0.0491428, Final residual = 1.99633e-07, No Iterations 6
smoothSolver:  Solving for p_rgh, Initial residual = 0.620059, Final residual = 0.598659, No Iterations 1000
diagonal:  Solving for rho, Initial residual = 0, Final residual = 0, No Iterations 0
time step continuity errors : sum local = -0.000251755, global = 0.000249188, cumulative = 0.00299484
smoothSolver:  Solving for Bx, Initial residual = 0.0802407, Final residual = 9.17976e-06, No Iterations 74
smoothSolver:  Solving for By, Initial residual = 0.0313332, Final residual = 9.80437e-06, No Iterations 99
DICPCG:  Solving for pB, Initial residual = 0.0559451, Final residual = 9.6282e-06, No Iterations 350
magnetic flux divergence error = 1.16381e-08
smoothSolver:  Solving for Bx, Initial residual = 1.82082e-05, Final residual = 9.27452e-06, No Iterations 2
smoothSolver:  Solving for By, Initial residual = 3.1291e-05, Final residual = 9.44632e-06, No Iterations 13
DICPCG:  Solving for pB, Initial residual = 4.16385e-05, Final residual = 9.33496e-06, No Iterations 23
magnetic flux divergence error = 1.17664e-08
smoothSolver:  Solving for Bx, Initial residual = 9.28504e-06, Final residual = 9.28504e-06, No Iterations 0
smoothSolver:  Solving for By, Initial residual = 9.45071e-06, Final residual = 9.45071e-06, No Iterations 0
DICPCG:  Solving for pB, Initial residual = 9.33472e-06, Final residual = 9.33472e-06, No Iterations 0
magnetic flux divergence error = 1.17664e-08
ExecutionTime = 42.24 s  ClockTime = 43 s

Courant Number mean: -0.0890142 max: -0.000208237
Time = 0.065

PIMPLE: iteration 1
diagonal:  Solving for rho, Initial residual = 0, Final residual = 0, No Iterations 0
smoothSolver:  Solving for Ux, Initial residual = 0.040791, Final residual = 6.71138e-06, No Iterations 4
smoothSolver:  Solving for Uy, Initial residual = 0.0896886, Final residual = 3.38602e-06, No Iterations 6
smoothSolver:  Solving for h, Initial residual = 0.0453809, Final residual = 9.96868e-07, No Iterations 6
smoothSolver:  Solving for p_rgh, Initial residual = 0.615333, Final residual = 0.591738, No Iterations 1000
diagonal:  Solving for rho, Initial residual = 0, Final residual = 0, No Iterations 0
time step continuity errors : sum local = -0.000252477, global = 0.000249117, cumulative = 0.00324396
smoothSolver:  Solving for Bx, Initial residual = 0.0785897, Final residual = 9.4453e-06, No Iterations 73
smoothSolver:  Solving for By, Initial residual = 0.0306343, Final residual = 9.45488e-06, No Iterations 99
DICPCG:  Solving for pB, Initial residual = 0.0525665, Final residual = 9.85251e-06, No Iterations 359
magnetic flux divergence error = 1.28817e-08
smoothSolver:  Solving for Bx, Initial residual = 1.92047e-05, Final residual = 9.85668e-06, No Iterations 2
smoothSolver:  Solving for By, Initial residual = 2.91897e-05, Final residual = 9.68332e-06, No Iterations 12
DICPCG:  Solving for pB, Initial residual = 3.90457e-05, Final residual = 9.7162e-06, No Iterations 23
magnetic flux divergence error = 1.3208e-08
smoothSolver:  Solving for Bx, Initial residual = 9.86582e-06, Final residual = 9.86582e-06, No Iterations 0
smoothSolver:  Solving for By, Initial residual = 9.68837e-06, Final residual = 9.68837e-06, No Iterations 0
DICPCG:  Solving for pB, Initial residual = 9.71599e-06, Final residual = 9.71599e-06, No Iterations 0
magnetic flux divergence error = 1.3208e-08
ExecutionTime = 45.29 s  ClockTime = 46 s

Courant Number mean: -0.0965626 max: -0.000239885
Time = 0.07

PIMPLE: iteration 1
diagonal:  Solving for rho, Initial residual = 0, Final residual = 0, No Iterations 0
smoothSolver:  Solving for Ux, Initial residual = 0.040532, Final residual = 6.22744e-06, No Iterations 6
smoothSolver:  Solving for Uy, Initial residual = 0.0791534, Final residual = 8.07377e-06, No Iterations 8
smoothSolver:  Solving for h, Initial residual = 0.0438078, Final residual = 7.87138e-07, No Iterations 8
smoothSolver:  Solving for p_rgh, Initial residual = 0.606032, Final residual = 0.57923, No Iterations 1000
diagonal:  Solving for rho, Initial residual = 0, Final residual = 0, No Iterations 0
time step continuity errors : sum local = -0.000253324, global = 0.000249046, cumulative = 0.003493
smoothSolver:  Solving for Bx, Initial residual = 0.0775632, Final residual = 9.95608e-06, No Iterations 72
smoothSolver:  Solving for By, Initial residual = 0.0302805, Final residual = 9.95593e-06, No Iterations 98
DICPCG:  Solving for pB, Initial residual = 0.0496355, Final residual = 9.95544e-06, No Iterations 391
magnetic flux divergence error = 1.40005e-08
smoothSolver:  Solving for Bx, Initial residual = 2.10606e-05, Final residual = 9.45052e-06, No Iterations 3
smoothSolver:  Solving for By, Initial residual = 2.86068e-05, Final residual = 9.53542e-06, No Iterations 12
DICPCG:  Solving for pB, Initial residual = 3.9901e-05, Final residual = 9.15826e-06, No Iterations 24
magnetic flux divergence error = 1.33533e-08
smoothSolver:  Solving for Bx, Initial residual = 9.45971e-06, Final residual = 9.45971e-06, No Iterations 0
smoothSolver:  Solving for By, Initial residual = 9.54217e-06, Final residual = 9.54217e-06, No Iterations 0
DICPCG:  Solving for pB, Initial residual = 9.15812e-06, Final residual = 9.15812e-06, No Iterations 0
magnetic flux divergence error = 1.33533e-08
ExecutionTime = 48.41 s  ClockTime = 49 s

Courant Number mean: -0.104224 max: -0.000280768
Time = 0.075

PIMPLE: iteration 1
diagonal:  Solving for rho, Initial residual = 0, Final residual = 0, No Iterations 0
smoothSolver:  Solving for Ux, Initial residual = 0.040707, Final residual = 7.94613e-06, No Iterations 12
smoothSolver:  Solving for Uy, Initial residual = 0.0761125, Final residual = 8.00291e-06, No Iterations 18
smoothSolver:  Solving for h, Initial residual = 0.0434232, Final residual = 5.35255e-07, No Iterations 13
smoothSolver:  Solving for p_rgh, Initial residual = 0.595269, Final residual = 0.565224, No Iterations 1000
diagonal:  Solving for rho, Initial residual = 0, Final residual = 0, No Iterations 0
time step continuity errors : sum local = -0.000254333, global = 0.000248975, cumulative = 0.00374198
smoothSolver:  Solving for Bx, Initial residual = 0.0771053, Final residual = 9.80705e-06, No Iterations 72
smoothSolver:  Solving for By, Initial residual = 0.030172, Final residual = 9.74824e-06, No Iterations 98
DICPCG:  Solving for pB, Initial residual = 0.0471363, Final residual = 9.9418e-06, No Iterations 440
magnetic flux divergence error = 1.49609e-08
smoothSolver:  Solving for Bx, Initial residual = 2.30343e-05, Final residual = 9.84856e-06, No Iterations 3
smoothSolver:  Solving for By, Initial residual = 2.82039e-05, Final residual = 9.99016e-06, No Iterations 11
DICPCG:  Solving for pB, Initial residual = 3.94354e-05, Final residual = 8.53289e-06, No Iterations 25
magnetic flux divergence error = 1.32817e-08
smoothSolver:  Solving for Bx, Initial residual = 9.85532e-06, Final residual = 9.85532e-06, No Iterations 0
smoothSolver:  Solving for By, Initial residual = 9.99779e-06, Final residual = 9.99779e-06, No Iterations 0
DICPCG:  Solving for pB, Initial residual = 8.53273e-06, Final residual = 8.53273e-06, No Iterations 0
magnetic flux divergence error = 1.32817e-08
ExecutionTime = 51.65 s  ClockTime = 52 s

Courant Number mean: -0.112044 max: -0.000334374
Time = 0.08

PIMPLE: iteration 1
diagonal:  Solving for rho, Initial residual = 0, Final residual = 0, No Iterations 0
smoothSolver:  Solving for Ux, Initial residual = 0.0413005, Final residual = 9.18391e-06, No Iterations 51
smoothSolver:  Solving for Uy, Initial residual = 0.0774699, Final residual = 8.8937e-06, No Iterations 65
smoothSolver:  Solving for h, Initial residual = 0.0438935, Final residual = 6.92873e-07, No Iterations 26
smoothSolver:  Solving for p_rgh, Initial residual = 0.585284, Final residual = 0.5495, No Iterations 1000
diagonal:  Solving for rho, Initial residual = 0, Final residual = 0, No Iterations 0
time step continuity errors : sum local = -0.00025553, global = 0.000248903, cumulative = 0.00399088
smoothSolver:  Solving for Bx, Initial residual = 0.0770787, Final residual = 9.79634e-06, No Iterations 72
smoothSolver:  Solving for By, Initial residual = 0.0303248, Final residual = 9.60487e-06, No Iterations 98
DICPCG:  Solving for pB, Initial residual = 0.0450506, Final residual = 9.62499e-06, No Iterations 437
magnetic flux divergence error = 1.54311e-08
smoothSolver:  Solving for Bx, Initial residual = 2.61717e-05, Final residual = 9.22363e-06, No Iterations 4
smoothSolver:  Solving for By, Initial residual = 2.87289e-05, Final residual = 9.77459e-06, No Iterations 11
DICPCG:  Solving for pB, Initial residual = 4.24722e-05, Final residual = 9.7922e-06, No Iterations 26
magnetic flux divergence error = 1.62046e-08
smoothSolver:  Solving for Bx, Initial residual = 9.23491e-06, Final residual = 9.23491e-06, No Iterations 0
smoothSolver:  Solving for By, Initial residual = 9.78419e-06, Final residual = 9.78419e-06, No Iterations 0
DICPCG:  Solving for pB, Initial residual = 9.79203e-06, Final residual = 9.79203e-06, No Iterations 0
magnetic flux divergence error = 1.62046e-08
ExecutionTime = 55.07 s  ClockTime = 56 s

Courant Number mean: -0.120058 max: -0.000389043
Time = 0.085

PIMPLE: iteration 1
diagonal:  Solving for rho, Initial residual = 0, Final residual = 0, No Iterations 0
smoothSolver:  Solving for Ux, Initial residual = 0.0423268, Final residual = 4.49133e+143, No Iterations 1000
smoothSolver:  Solving for Uy, Initial residual = 0.0782638, Final residual = 1.07406e+145, No Iterations 1000
smoothSolver:  Solving for h, Initial residual = 0.0464981, Final residual = 9.76816e-07, No Iterations 257
smoothSolver:  Solving for p_rgh, Initial residual = 1, Final residual = 0.0117401, No Iterations 1000
diagonal:  Solving for rho, Initial residual = 0, Final residual = 0, No Iterations 0
time step continuity errors : sum local = -1.3193e+16, global = 1, cumulative = 1.00399
[stack trace]
=============
#1  Foam::sigFpe::sigHandler(int) in /opt/OpenFOAM/OpenFOAM-v2512/platforms/linux64GccDPInt32Opt/lib/libOpenFOAM.so
#2  ? in /usr/lib/libc.so.6
#3  Foam::symGaussSeidelSmoother::smooth(Foam::word const&, Foam::Field<double>&, Foam::lduMatrix const&, Foam::Field<double> const&, Foam::FieldField<Foam::Field, double> const&, Foam::UPtrList<Foam::lduInterfaceField const> const&, unsigned char, int) in /opt/OpenFOAM/OpenFOAM-v2512/platforms/linux64GccDPInt32Opt/lib/libOpenFOAM.so
#4  Foam::symGaussSeidelSmoother::smooth(Foam::Field<double>&, Foam::Field<double> const&, unsigned char, int) const in /opt/OpenFOAM/OpenFOAM-v2512/platforms/linux64GccDPInt32Opt/lib/libOpenFOAM.so
#5  Foam::smoothSolver::solve(Foam::Field<double>&, Foam::Field<double> const&, unsigned char) const in /opt/OpenFOAM/OpenFOAM-v2512/platforms/linux64GccDPInt32Opt/lib/libOpenFOAM.so
#6  Foam::fvMatrix<Foam::Vector<double> >::solveSegregated(Foam::dictionary const&) in /opt/OpenFOAM/OpenFOAM-v2512/platforms/linux64GccDPInt32Opt/lib/libfiniteVolume.so
#7  Foam::fvMatrix<Foam::Vector<double> >::solveSegregatedOrCoupled(Foam::dictionary const&) in /opt/OpenFOAM/OpenFOAM-v2512/platforms/linux64GccDPInt32Opt/lib/libfiniteVolume.so
#8  Foam::fvMesh::solve(Foam::fvMatrix<Foam::Vector<double> >&, Foam::dictionary const&) const in /opt/OpenFOAM/OpenFOAM-v2512/platforms/linux64GccDPInt32Opt/lib/libfiniteVolume.so
#9  ? in ~/OpenFOAM/Raf-v2512/platforms/linux64GccDPInt32Opt/bin/magnetoHDFoam
#10  ? in ~/OpenFOAM/Raf-v2512/platforms/linux64GccDPInt32Opt/bin/magnetoHDFoam
#11  ? in /usr/lib/libc.so.6
#12  __libc_start_main in /usr/lib/libc.so.6
#13  ? in ~/OpenFOAM/Raf-v2512/platforms/linux64GccDPInt32Opt/bin/magnetoHDFoam
=============
